p30uhs8_1247--p30udt9870/Lines.dss
New Line.l(r:p30udm6389-p30ulv7055) Units=km Length=0.010081 bus1=p30udm6389.1.2 bus2=p30ulv7055.1.2 switch=n enabled=y phases=2 Linecode=1P_UG_AL_4/0_Sweetbriar_2

New Line.l(r:p30udm6389-p30udt1554lv) Units=km Length=0.0551112 bus1=p30udt1554lv.1.2 bus2=p30udm6389.1.2 switch=n enabled=y phases=2 Linecode=1P_UG_AL_4/0_Sweetbriar_2

New Line.l(r:p30udm6390-p30ulv30721) Units=km Length=0.0157862 bus1=p30udm6390.1.2 bus2=p30ulv30721.1.2 switch=n enabled=y phases=2 Linecode=1P_UG_AL_1/0_Brenau_2

New Line.l(r:p30udm6390-p30udt1554lv) Units=km Length=0.038402200000000004 bus1=p30udt1554lv.1.2 bus2=p30udm6390.1.2 switch=n enabled=y phases=2 Linecode=1P_UG_AL_1/0_Brenau_2

New Line.l(r:p30udt1556lv-p30ulv7057) Units=km Length=0.0177897 bus1=p30udt1556lv.1.2 bus2=p30ulv7057.1.2 switch=n enabled=y phases=2 Linecode=1P_OH_AL_2/0_Rucina_2

New Line.l(r:p30udt1556lv-p30ulv40392) Units=km Length=0.00327771 bus1=p30udt1556lv.1.2 bus2=p30ulv40392.1.2 switch=n enabled=y phases=2 Linecode=1P_OH_AL_4_Periwinkle_2

New Line.l(r:p30udm6393-p30ulv40391) Units=km Length=0.00717948 bus1=p30udm6393.1.2 bus2=p30ulv40391.1.2 switch=n enabled=y phases=2 Linecode=1P_OH_AL_2/0_Rucina_2

New Line.l(r:p30udm6393-p30udt1556lv) Units=km Length=0.0169511 bus1=p30udt1556lv.1.2 bus2=p30udm6393.1.2 switch=n enabled=y phases=2 Linecode=1P_OH_AL_2/0_Rucina_2

New Line.l(r:p30udt1563lv-p30ulv7065) Units=km Length=0.023917 bus1=p30udt1563lv.1.2 bus2=p30ulv7065.1.2 switch=n enabled=y phases=2 Linecode=1P_OH_AL_2/0_Rucina_2

New Line.l(r:p30udm6418-p30ulv7130) Units=km Length=0.00535179 bus1=p30udm6418.1.2 bus2=p30ulv7130.1.2 switch=n enabled=y phases=2 Linecode=1P_OH_AL_2/0_Rucina_2

New Line.l(r:p30udm6419-p30ulv7131) Units=km Length=0.0051753500000000004 bus1=p30udm6419.1.2 bus2=p30ulv7131.1.2 switch=n enabled=y phases=2 Linecode=1P_OH_AL_2/0_Rucina_2

New Line.l(r:p30udm6420-p30ulv7133) Units=km Length=0.005637460000000001 bus1=p30udm6420.1.2 bus2=p30ulv7133.1.2 switch=n enabled=y phases=2 Linecode=1P_OH_AL_2/0_Rucina_2

New Line.l(r:p30udm6419-p30udm6420) Units=km Length=0.0158435 bus1=p30udm6419.1.2 bus2=p30udm6420.1.2 switch=n enabled=y phases=2 Linecode=1P_OH_AL_2/0_Rucina_2

New Line.l(r:p30udm6418-p30udm6419) Units=km Length=0.0151163 bus1=p30udm6418.1.2 bus2=p30udm6419.1.2 switch=n enabled=y phases=2 Linecode=1P_OH_AL_2/0_Rucina_2

New Line.l(r:p30udm6418-p30udt1563lv) Units=km Length=0.0456495 bus1=p30udt1563lv.1.2 bus2=p30udm6418.1.2 switch=n enabled=y phases=2 Linecode=1P_OH_AL_4/0_Zuzara_2_1

New Line.l(r:p30udm6423-p30ulv40342) Units=km Length=0.00694283 bus1=p30udm6423.1.2 bus2=p30ulv40342.1.2 switch=n enabled=y phases=2 Linecode=1P_OH_AL_2/0_Rucina_2

New Line.l(r:p30udm6422-p30ulv40341) Units=km Length=0.0186363 bus1=p30udm6422.1.2 bus2=p30ulv40341.1.2 switch=n enabled=y phases=2 Linecode=1P_OH_AL_2/0_Rucina_2

New Line.l(r:p30udm6422-p30udm6423) Units=km Length=0.0101071 bus1=p30udm6423.1.2 bus2=p30udm6422.1.2 switch=n enabled=y phases=2 Linecode=1P_OH_AL_2/0_Rucina_2

New Line.l(r:p30udm6423-p30udt1564lv) Units=km Length=0.0101205 bus1=p30udt1564lv.1.2 bus2=p30udm6423.1.2 switch=n enabled=y phases=2 Linecode=1P_OH_AL_2/0_Rucina_2

New Line.l(r:p30udm6424-p30ulv40367) Units=km Length=0.00798244 bus1=p30udm6424.1.2 bus2=p30ulv40367.1.2 switch=n enabled=y phases=2 Linecode=1P_OH_AL_2/0_Rucina_2

New Line.l(r:p30udm6421-p30ulv7066) Units=km Length=0.0118725 bus1=p30udm6421.1.2 bus2=p30ulv7066.1.2 switch=n enabled=y phases=2 Linecode=1P_OH_AL_2/0_Rucina_2

New Line.l(r:p30udm6421-p30udm6424) Units=km Length=0.018361900000000004 bus1=p30udm6424.1.2 bus2=p30udm6421.1.2 switch=n enabled=y phases=2 Linecode=1P_OH_AL_2/0_Rucina_2

New Line.l(r:p30udm6424-p30udt1564lv) Units=km Length=0.0102592 bus1=p30udt1564lv.1.2 bus2=p30udm6424.1.2 switch=n enabled=y phases=2 Linecode=1P_OH_AL_2/0_Rucina_2

New Line.l(r:p30udt1578lv-p30ulv7106) Units=km Length=0.00431521 bus1=p30udt1578lv.1.2 bus2=p30ulv7106.1.2 switch=n enabled=y phases=2 Linecode=1P_OH_AL_2/0_Rucina_2

New Line.l(r:p30udt1578lv-p30ulv7135) Units=km Length=0.00355647 bus1=p30udt1578lv.1.2 bus2=p30ulv7135.1.2 switch=n enabled=y phases=2 Linecode=1P_OH_AL_4_Periwinkle_2

New Line.l(r:p30udt1578lv-p30ulv7137) Units=km Length=0.00593507 bus1=p30udt1578lv.1.2 bus2=p30ulv7137.1.2 switch=n enabled=y phases=2 Linecode=1P_OH_AL_2/0_Rucina_2

New Line.l(r:p30udm6518-p30ulv7105) Units=km Length=0.00580504 bus1=p30udm6518.1.2 bus2=p30ulv7105.1.2 switch=n enabled=y phases=2 Linecode=1P_OH_AL_2/0_Rucina_2

New Line.l(r:p30udm6518-p30udt1578lv) Units=km Length=0.019047600000000005 bus1=p30udt1578lv.1.2 bus2=p30udm6518.1.2 switch=n enabled=y phases=2 Linecode=1P_OH_AL_2/0_Rucina_2

New Line.l(r:p30udm6520-p30ulv7108) Units=km Length=0.006129230000000001 bus1=p30udm6520.1.2 bus2=p30ulv7108.1.2 switch=n enabled=y phases=2 Linecode=1P_OH_AL_2/0_Rucina_2

New Line.l(r:p30udm6520-p30ulv7109) Units=km Length=0.0052267 bus1=p30udm6520.1.2 bus2=p30ulv7109.1.2 switch=n enabled=y phases=2 Linecode=1P_OH_AL_2/0_Rucina_2

New Line.l(r:p30udm6520-p30ulv7138) Units=km Length=0.00343792 bus1=p30udm6520.1.2 bus2=p30ulv7138.1.2 switch=n enabled=y phases=2 Linecode=1P_OH_AL_4_Periwinkle_2

New Line.l(r:p30udm6520-p30udt1578lv) Units=km Length=0.019047600000000005 bus1=p30udt1578lv.1.2 bus2=p30udm6520.1.2 switch=n enabled=y phases=2 Linecode=1P_OH_AL_2/0_Rucina_2

New Line.l(r:p30udt1579lv-p30ulv7110) Units=km Length=0.0038475200000000005 bus1=p30udt1579lv.1.2 bus2=p30ulv7110.1.2 switch=n enabled=y phases=2 Linecode=1P_OH_AL_4_Periwinkle_2

New Line.l(r:p30udt1579lv-p30ulv7116) Units=km Length=0.0043961 bus1=p30udt1579lv.1.2 bus2=p30ulv7116.1.2 switch=n enabled=y phases=2 Linecode=1P_OH_AL_2/0_Rucina_2

New Line.l(r:p30udm6527-p30ulv7120) Units=km Length=0.00440478 bus1=p30udm6527.1.2 bus2=p30ulv7120.1.2 switch=n enabled=y phases=2 Linecode=1P_OH_AL_2/0_Rucina_2

New Line.l(r:p30udm6527-p30udt1579lv) Units=km Length=0.015616700000000002 bus1=p30udt1579lv.1.2 bus2=p30udm6527.1.2 switch=n enabled=y phases=2 Linecode=1P_OH_AL_2/0_Rucina_2

New Line.l(r:p30udm6528-p30ulv7125) Units=km Length=0.004484150000000001 bus1=p30udm6528.1.2 bus2=p30ulv7125.1.2 switch=n enabled=y phases=2 Linecode=1P_OH_AL_2/0_Rucina_2

New Line.l(r:p30udm6528-p30udt1579lv) Units=km Length=0.015616700000000002 bus1=p30udt1579lv.1.2 bus2=p30udm6528.1.2 switch=n enabled=y phases=2 Linecode=1P_OH_AL_2/0_Rucina_2

New Line.l(r:p30udt1580lv-p30ulv7115) Units=km Length=0.00403626 bus1=p30udt1580lv.1.2 bus2=p30ulv7115.1.2 switch=n enabled=y phases=2 Linecode=1P_OH_AL_2/0_Rucina_2

New Line.l(r:p30udt1580lv-p30ulv7121) Units=km Length=0.0045607 bus1=p30udt1580lv.1.2 bus2=p30ulv7121.1.2 switch=n enabled=y phases=2 Linecode=1P_OH_AL_2/0_Rucina_2

New Line.l(r:p30udm6529-p30ulv7114) Units=km Length=0.003809 bus1=p30udm6529.1.2 bus2=p30ulv7114.1.2 switch=n enabled=y phases=2 Linecode=1P_OH_AL_4_Periwinkle_2

New Line.l(r:p30udm6529-p30udt1580lv) Units=km Length=0.015616700000000002 bus1=p30udt1580lv.1.2 bus2=p30udm6529.1.2 switch=n enabled=y phases=2 Linecode=1P_OH_AL_2/0_Rucina_2

New Line.l(r:p30udt1581lv-p30ulv7128) Units=km Length=0.00415626 bus1=p30udt1581lv.1.2 bus2=p30ulv7128.1.2 switch=n enabled=y phases=2 Linecode=1P_OH_AL_2/0_Rucina_2

New Line.l(r:p30udm6534-p30ulv7129) Units=km Length=0.0036465100000000004 bus1=p30udm6534.1.2 bus2=p30ulv7129.1.2 switch=n enabled=y phases=2 Linecode=1P_OH_AL_4_Periwinkle_2

New Line.l(r:p30udm6532-p30ulv7122) Units=km Length=0.00676932 bus1=p30udm6532.1.2 bus2=p30ulv7122.1.2 switch=n enabled=y phases=2 Linecode=1P_OH_AL_2/0_Rucina_2

New Line.l(r:p30udm6532-p30udm6534) Units=km Length=0.054288 bus1=p30udm6534.1.2 bus2=p30udm6532.1.2 switch=n enabled=y phases=2 Linecode=1P_OH_AL_4/0_Zuzara_2

New Line.l(r:p30udm6534-p30udt1581lv) Units=km Length=0.0182998 bus1=p30udt1581lv.1.2 bus2=p30udm6534.1.2 switch=n enabled=y phases=2 Linecode=1P_OH_AL_2/0_Rucina_2

New Line.l(r:p30udm12668-p30ulv10318) Units=km Length=0.00846823 bus1=p30udm12668.1.2 bus2=p30ulv10318.1.2 switch=n enabled=y phases=2 Linecode=1P_OH_AL_2/0_Rucina_2

New Line.l(r:p30udm12668-p30udt2794lv) Units=km Length=0.0374995 bus1=p30udt2794lv.1.2 bus2=p30udm12668.1.2 switch=n enabled=y phases=2 Linecode=1P_OH_AL_4/0_Zuzara_2

New Line.l(r:p30udm12669-p30ulv43309) Units=km Length=0.00668746 bus1=p30udm12669.1.2 bus2=p30ulv43309.1.2 switch=n enabled=y phases=2 Linecode=1P_UG_AL_1/0_Brenau_2

New Line.l(r:p30udm12669-p30udt2794lv) Units=km Length=0.0744185 bus1=p30udt2794lv.1.2 bus2=p30udm12669.1.2 switch=n enabled=y phases=2 Linecode=1P_OH_AL_4/0_Zuzara_2

New Line.l(r:p30udt2795lv-p30ulv10320) Units=km Length=0.00833591 bus1=p30udt2795lv.1.2 bus2=p30ulv10320.1.2 switch=n enabled=y phases=2 Linecode=1P_UG_AL_4/0_Sweetbriar_2

New Line.l(r:p30udt2796lv-p30ulv10321) Units=km Length=0.0101702 bus1=p30udt2796lv.1.2 bus2=p30ulv10321.1.2 switch=n enabled=y phases=2 Linecode=1P_UG_AL_1/0_Brenau_2

New Line.l(r:p30udm12672-p30ulv10322) Units=km Length=0.0102883 bus1=p30udm12672.1.2 bus2=p30ulv10322.1.2 switch=n enabled=y phases=2 Linecode=1P_UG_AL_1/0_Brenau_2

New Line.l(r:p30udm12672-p30udt2796lv) Units=km Length=0.0213951 bus1=p30udt2796lv.1.2 bus2=p30udm12672.1.2 switch=n enabled=y phases=2 Linecode=1P_UG_AL_1/0_Brenau_2

New Line.l(r:p30udm12673-p30ulv43286) Units=km Length=0.010687900000000002 bus1=p30udm12673.1.2 bus2=p30ulv43286.1.2 switch=n enabled=y phases=2 Linecode=1P_UG_AL_4/0_Sweetbriar_2

New Line.l(r:p30udm12673-p30udt2796lv) Units=km Length=0.00928665 bus1=p30udt2796lv.1.2 bus2=p30udm12673.1.2 switch=n enabled=y phases=2 Linecode=1P_UG_AL_4/0_Sweetbriar_2

New Line.l(r:p30udt2801lv-p30ulv10327) Units=km Length=0.0146959 bus1=p30udt2801lv.1.2 bus2=p30ulv10327.1.2 switch=n enabled=y phases=2 Linecode=1P_OH_AL_2/0_Rucina_2

New Line.l(r:p30udt3440lv-p30ulv30651) Units=km Length=0.016407800000000004 bus1=p30udt3440lv.1.2 bus2=p30ulv30651.1.2 switch=n enabled=y phases=2 Linecode=1P_OH_AL_2/0_Rucina_2

New Line.l(r:p30udt3440lv-p30ulv30666) Units=km Length=0.017397 bus1=p30udt3440lv.1.2 bus2=p30ulv30666.1.2 switch=n enabled=y phases=2 Linecode=1P_OH_AL_2/0_Rucina_2

New Line.l(r:p30udt3440lv-p30ulv30686) Units=km Length=0.0193769 bus1=p30udt3440lv.1.2 bus2=p30ulv30686.1.2 switch=n enabled=y phases=2 Linecode=1P_OH_AL_2/0_Rucina_2

New Line.l(r:p30udm16140-p30ulv12272) Units=km Length=0.0467105 bus1=p30udm16140.1.2 bus2=p30ulv12272.1.2 switch=n enabled=y phases=2 Linecode=1P_OH_AL_4/0_Zuzara_2

New Line.l(r:p30udm16140-p30ulv30633) Units=km Length=0.01614 bus1=p30udm16140.1.2 bus2=p30ulv30633.1.2 switch=n enabled=y phases=2 Linecode=1P_OH_AL_2/0_Rucina_2

New Line.l(r:p30udm16140-p30ulv30661) Units=km Length=0.0179929 bus1=p30udm16140.1.2 bus2=p30ulv30661.1.2 switch=n enabled=y phases=2 Linecode=1P_OH_AL_2/0_Rucina_2

New Line.l(r:p30udm16140-p30udt3440lv) Units=km Length=0.0187812 bus1=p30udt3440lv.1.2 bus2=p30udm16140.1.2 switch=n enabled=y phases=2 Linecode=1P_OH_AL_2/0_Rucina_2

New Line.l(r:p30udm16144-p30ulv30663) Units=km Length=0.0458712 bus1=p30udm16144.1.2 bus2=p30ulv30663.1.2 switch=n enabled=y phases=2 Linecode=1P_OH_AL_4/0_Zuzara_2

New Line.l(r:p30udm16144-p30ulv30680) Units=km Length=0.0173688 bus1=p30udm16144.1.2 bus2=p30ulv30680.1.2 switch=n enabled=y phases=2 Linecode=1P_OH_AL_2/0_Rucina_2

New Line.l(r:p30udm16144-p30ulv30703) Units=km Length=0.019008 bus1=p30udm16144.1.2 bus2=p30ulv30703.1.2 switch=n enabled=y phases=2 Linecode=1P_OH_AL_2/0_Rucina_2

New Line.l(r:p30udm16144-p30ulv30718) Units=km Length=0.0216579 bus1=p30udm16144.1.2 bus2=p30ulv30718.1.2 switch=n enabled=y phases=2 Linecode=1P_OH_AL_2/0_Rucina_2

New Line.l(r:p30udm16148-p30ulv30691) Units=km Length=0.0130009 bus1=p30udm16148.1.2 bus2=p30ulv30691.1.2 switch=n enabled=y phases=2 Linecode=1P_OH_AL_2/0_Rucina_2

New Line.l(r:p30udm16144-p30udm16148) Units=km Length=0.0187864 bus1=p30udm16144.1.2 bus2=p30udm16148.1.2 switch=n enabled=y phases=2 Linecode=1P_OH_AL_2/0_Rucina_2

New Line.l(r:p30udm16144-p30udt3440lv) Units=km Length=0.0187727 bus1=p30udt3440lv.1.2 bus2=p30udm16144.1.2 switch=n enabled=y phases=2 Linecode=1P_OH_AL_2/0_Rucina_2

New Line.l(r:p30udt3614lv-p30ulv12649) Units=km Length=0.0148647 bus1=p30udt3614lv.1.2 bus2=p30ulv12649.1.2 switch=n enabled=y phases=2 Linecode=1P_OH_AL_2/0_Rucina_2

New Line.l(r:p30udt3614lv-p30ulv31677) Units=km Length=0.020021 bus1=p30udt3614lv.1.2 bus2=p30ulv31677.1.2 switch=n enabled=y phases=2 Linecode=1P_OH_AL_2/0_Rucina_2

New Line.l(r:p30udt3614lv-p30ulv31684) Units=km Length=0.0174977 bus1=p30udt3614lv.1.2 bus2=p30ulv31684.1.2 switch=n enabled=y phases=2 Linecode=1P_OH_AL_2/0_Rucina_2

New Line.l(r:p30udm17163-p30ulv12647) Units=km Length=0.0159215 bus1=p30udm17163.1.2 bus2=p30ulv12647.1.2 switch=n enabled=y phases=2 Linecode=1P_OH_AL_2/0_Rucina_2

New Line.l(r:p30udm17163-p30ulv12669) Units=km Length=0.017561500000000004 bus1=p30udm17163.1.2 bus2=p30ulv12669.1.2 switch=n enabled=y phases=2 Linecode=1P_OH_AL_2/0_Rucina_2

New Line.l(r:p30udm17163-p30ulv31654) Units=km Length=0.043948 bus1=p30udm17163.1.2 bus2=p30ulv31654.1.2 switch=n enabled=y phases=2 Linecode=1P_OH_AL_4/0_Zuzara_2

New Line.l(r:p30udm17163-p30ulv31662) Units=km Length=0.0139291 bus1=p30udm17163.1.2 bus2=p30ulv31662.1.2 switch=n enabled=y phases=2 Linecode=1P_OH_AL_2/0_Rucina_2

New Line.l(r:p30udm17163-p30udt3614lv) Units=km Length=0.0187727 bus1=p30udt3614lv.1.2 bus2=p30udm17163.1.2 switch=n enabled=y phases=2 Linecode=1P_OH_AL_2/0_Rucina_2

New Line.l(r:p30udm17166-p30ulv31627) Units=km Length=0.0343037 bus1=p30udm17166.1.2 bus2=p30ulv31627.1.2 switch=n enabled=y phases=2 Linecode=1P_OH_AL_4/0_Zuzara_2

New Line.l(r:p30udm17166-p30ulv31636) Units=km Length=0.014263600000000001 bus1=p30udm17166.1.2 bus2=p30ulv31636.1.2 switch=n enabled=y phases=2 Linecode=1P_OH_AL_2/0_Rucina_2

New Line.l(r:p30udm17166-p30ulv31659) Units=km Length=0.0194674 bus1=p30udm17166.1.2 bus2=p30ulv31659.1.2 switch=n enabled=y phases=2 Linecode=1P_OH_AL_2/0_Rucina_2

New Line.l(r:p30udm17166-p30udt3614lv) Units=km Length=0.0187812 bus1=p30udt3614lv.1.2 bus2=p30udm17166.1.2 switch=n enabled=y phases=2 Linecode=1P_OH_AL_2/0_Rucina_2

New Line.l(r:p30udt3615lv-p30ulv30632) Units=km Length=0.0171979 bus1=p30udt3615lv.1.2 bus2=p30ulv30632.1.2 switch=n enabled=y phases=2 Linecode=1P_OH_AL_2/0_Rucina_2

New Line.l(r:p30udt3615lv-p30ulv30640) Units=km Length=0.0327516 bus1=p30udt3615lv.1.2 bus2=p30ulv30640.1.2 switch=n enabled=y phases=2 Linecode=1P_OH_AL_4/0_Zuzara_2

New Line.l(r:p30udt3615lv-p30ulv31701) Units=km Length=0.0470435 bus1=p30udt3615lv.1.2 bus2=p30ulv31701.1.2 switch=n enabled=y phases=2 Linecode=1P_OH_AL_4/0_Zuzara_2

New Line.l(r:p30udt3615lv-p30ulv31703) Units=km Length=0.0156409 bus1=p30udt3615lv.1.2 bus2=p30ulv31703.1.2 switch=n enabled=y phases=2 Linecode=1P_OH_AL_2/0_Rucina_2

New Line.l(r:p30udm17173-p30ulv12648) Units=km Length=0.0162109 bus1=p30udm17173.1.2 bus2=p30ulv12648.1.2 switch=n enabled=y phases=2 Linecode=1P_OH_AL_2/0_Rucina_2

New Line.l(r:p30udm17173-p30ulv12670) Units=km Length=0.0180959 bus1=p30udm17173.1.2 bus2=p30ulv12670.1.2 switch=n enabled=y phases=2 Linecode=1P_OH_AL_2/0_Rucina_2

New Line.l(r:p30udm17173-p30udt3615lv) Units=km Length=0.0187727 bus1=p30udt3615lv.1.2 bus2=p30udm17173.1.2 switch=n enabled=y phases=2 Linecode=1P_OH_AL_2/0_Rucina_2

New Line.l(r:p30udm17177-p30ulv30648) Units=km Length=0.0181039 bus1=p30udm17177.1.2 bus2=p30ulv30648.1.2 switch=n enabled=y phases=2 Linecode=1P_OH_AL_2/0_Rucina_2

New Line.l(r:p30udm17177-p30ulv30670) Units=km Length=0.0432915 bus1=p30udm17177.1.2 bus2=p30ulv30670.1.2 switch=n enabled=y phases=2 Linecode=1P_OH_AL_4/0_Zuzara_2

New Line.l(r:p30udm17177-p30ulv31715) Units=km Length=0.013501600000000002 bus1=p30udm17177.1.2 bus2=p30ulv31715.1.2 switch=n enabled=y phases=2 Linecode=1P_OH_AL_2/0_Rucina_2

New Line.l(r:p30udm17177-p30udt3615lv) Units=km Length=0.0187812 bus1=p30udt3615lv.1.2 bus2=p30udm17177.1.2 switch=n enabled=y phases=2 Linecode=1P_OH_AL_2/0_Rucina_2

New Line.l(r:p30udt4321lv-p30ulv29750) Units=km Length=0.0178289 bus1=p30udt4321lv.1.2 bus2=p30ulv29750.1.2 switch=n enabled=y phases=2 Linecode=1P_UG_AL_1/0_Brenau_2

New Line.l(r:p30udt4321lv-p30ulv29786) Units=km Length=0.0172739 bus1=p30udt4321lv.1.2 bus2=p30ulv29786.1.2 switch=n enabled=y phases=2 Linecode=1P_UG_AL_1/0_Brenau_2

New Line.l(r:p30udm20326-p30ulv14162) Units=km Length=0.0469702 bus1=p30udm20326.1.2 bus2=p30ulv14162.1.2 switch=n enabled=y phases=2 Linecode=1P_UG_AL_1/0_Brenau_2

New Line.l(r:p30udm20326-p30ulv29739) Units=km Length=0.0196485 bus1=p30udm20326.1.2 bus2=p30ulv29739.1.2 switch=n enabled=y phases=2 Linecode=1P_UG_AL_1/0_Brenau_2

New Line.l(r:p30udm20327-p30ulv29732) Units=km Length=0.016031 bus1=p30udm20327.1.2 bus2=p30ulv29732.1.2 switch=n enabled=y phases=2 Linecode=1P_UG_AL_1/0_Brenau_2

New Line.l(r:p30udm20326-p30udm20327) Units=km Length=0.0199608 bus1=p30udm20326.1.2 bus2=p30udm20327.1.2 switch=n enabled=y phases=2 Linecode=1P_UG_AL_1/0_Brenau_2

New Line.l(r:p30udm20326-p30udt4321lv) Units=km Length=0.00998301 bus1=p30udt4321lv.1.2 bus2=p30udm20326.1.2 switch=n enabled=y phases=2 Linecode=1P_UG_AL_2/0_Converse_2

New Line.l(r:p30udm20330-p30ulv29762) Units=km Length=0.0180065 bus1=p30udm20330.1.2 bus2=p30ulv29762.1.2 switch=n enabled=y phases=2 Linecode=1P_UG_AL_1/0_Brenau_2

New Line.l(r:p30udm20332-p30ulv29795) Units=km Length=0.019469200000000002 bus1=p30udm20332.1.2 bus2=p30ulv29795.1.2 switch=n enabled=y phases=2 Linecode=1P_UG_AL_1/0_Brenau_2

New Line.l(r:p30udm20330-p30udm20332) Units=km Length=0.00998301 bus1=p30udm20330.1.2 bus2=p30udm20332.1.2 switch=n enabled=y phases=2 Linecode=1P_UG_AL_1/0_Brenau_2

New Line.l(r:p30udm20330-p30udt4321lv) Units=km Length=0.00998301 bus1=p30udt4321lv.1.2 bus2=p30udm20330.1.2 switch=n enabled=y phases=2 Linecode=1P_UG_AL_4/0_Sweetbriar_2

New Line.l(r:p30udt4322lv-p30ulv14164) Units=km Length=0.016370900000000004 bus1=p30udt4322lv.1.2 bus2=p30ulv14164.1.2 switch=n enabled=y phases=2 Linecode=1P_UG_AL_4/0_Sweetbriar_2

New Line.l(r:p30udt4322lv-p30ulv29798) Units=km Length=0.0319764 bus1=p30udt4322lv.1.2 bus2=p30ulv29798.1.2 switch=n enabled=y phases=2 Linecode=1P_UG_AL_1/0_Brenau_2

New Line.l(r:p30udm20334-p30ulv14165) Units=km Length=0.0167804 bus1=p30udm20334.1.2 bus2=p30ulv14165.1.2 switch=n enabled=y phases=2 Linecode=1P_UG_AL_1/0_Brenau_2

New Line.l(r:p30udm20334-p30udt4322lv) Units=km Length=0.00997784 bus1=p30udt4322lv.1.2 bus2=p30udm20334.1.2 switch=n enabled=y phases=2 Linecode=1P_UG_AL_1/0_Brenau_2

New Line.l(r:p30udt4323lv-p30ulv14193) Units=km Length=0.0118424 bus1=p30udt4323lv.1.2 bus2=p30ulv14193.1.2 switch=n enabled=y phases=2 Linecode=1P_OH_AL_2/0_Rucina_2

New Line.l(r:p30udm20336-p30ulv14166) Units=km Length=0.0100103 bus1=p30udm20336.1.2 bus2=p30ulv14166.1.2 switch=n enabled=y phases=2 Linecode=1P_OH_AL_2/0_Rucina_2

New Line.l(r:p30udm20336-p30udt4323lv) Units=km Length=0.0192419 bus1=p30udt4323lv.1.2 bus2=p30udm20336.1.2 switch=n enabled=y phases=2 Linecode=1P_OH_AL_2/0_Rucina_2

New Line.l(r:p30udm20339-p30ulv29818) Units=km Length=0.0116784 bus1=p30udm20339.1.2 bus2=p30ulv29818.1.2 switch=n enabled=y phases=2 Linecode=1P_OH_AL_2/0_Rucina_2

New Line.l(r:p30udm20338-p30ulv29807) Units=km Length=0.0158292 bus1=p30udm20338.1.2 bus2=p30ulv29807.1.2 switch=n enabled=y phases=2 Linecode=1P_OH_AL_2/0_Rucina_2

New Line.l(r:p30udm20338-p30udm20339) Units=km Length=0.0184027 bus1=p30udm20339.1.2 bus2=p30udm20338.1.2 switch=n enabled=y phases=2 Linecode=1P_OH_AL_2/0_Rucina_2

New Line.l(r:p30udm20339-p30udt4323lv) Units=km Length=0.0184027 bus1=p30udt4323lv.1.2 bus2=p30udm20339.1.2 switch=n enabled=y phases=2 Linecode=1P_OH_AL_2/0_Rucina_2

New Line.l(r:p30udt4327lv-p30ulv14173) Units=km Length=0.0159063 bus1=p30udt4327lv.1.2 bus2=p30ulv14173.1.2 switch=n enabled=y phases=2 Linecode=1P_OH_AL_2/0_Rucina_2

New Line.l(r:p30udt4327lv-p30ulv29731) Units=km Length=0.045723 bus1=p30udt4327lv.1.2 bus2=p30ulv29731.1.2 switch=n enabled=y phases=2 Linecode=1P_OH_AL_4/0_Zuzara_2

New Line.l(r:p30udm20353-p30ulv14171) Units=km Length=0.0163359 bus1=p30udm20353.1.2 bus2=p30ulv14171.1.2 switch=n enabled=y phases=2 Linecode=1P_OH_AL_2/0_Rucina_2

New Line.l(r:p30udm20353-p30udt4327lv) Units=km Length=0.0190178 bus1=p30udt4327lv.1.2 bus2=p30udm20353.1.2 switch=n enabled=y phases=2 Linecode=1P_OH_AL_2/0_Rucina_2

New Line.l(r:p30udm20356-p30ulv14175) Units=km Length=0.0125125 bus1=p30udm20356.1.2 bus2=p30ulv14175.1.2 switch=n enabled=y phases=2 Linecode=1P_OH_AL_2/0_Rucina_2

New Line.l(r:p30udm20357-p30ulv14176) Units=km Length=0.0120122 bus1=p30udm20357.1.2 bus2=p30ulv14176.1.2 switch=n enabled=y phases=2 Linecode=1P_OH_AL_2/0_Rucina_2

New Line.l(r:p30udm20358-p30ulv29751) Units=km Length=0.011104 bus1=p30udm20358.1.2 bus2=p30ulv29751.1.2 switch=n enabled=y phases=2 Linecode=1P_OH_AL_2/0_Rucina_2

New Line.l(r:p30udm20357-p30udm20358) Units=km Length=0.0180538 bus1=p30udm20357.1.2 bus2=p30udm20358.1.2 switch=n enabled=y phases=2 Linecode=1P_OH_AL_2/0_Rucina_2

New Line.l(r:p30udm20356-p30udm20357) Units=km Length=0.0180538 bus1=p30udm20356.1.2 bus2=p30udm20357.1.2 switch=n enabled=y phases=2 Linecode=1P_OH_AL_2/0_Rucina_2

New Line.l(r:p30udm20356-p30udt4328lv) Units=km Length=0.0312525 bus1=p30udt4328lv.1.2 bus2=p30udm20356.1.2 switch=n enabled=y phases=2 Linecode=1P_OH_AL_4/0_Zuzara_2_1

New Line.l(r:p30udm20359-p30ulv29782) Units=km Length=0.0269711 bus1=p30udm20359.1.2 bus2=p30ulv29782.1.2 switch=n enabled=y phases=2 Linecode=1P_OH_AL_2/0_Rucina_2

New Line.l(r:p30udm20359-p30udt4328lv) Units=km Length=0.019012600000000004 bus1=p30udt4328lv.1.2 bus2=p30udm20359.1.2 switch=n enabled=y phases=2 Linecode=1P_OH_AL_2/0_Rucina_2

New Line.l(r:p30udm20372-p30ulv29691) Units=km Length=0.012408500000000001 bus1=p30udm20372.1.2 bus2=p30ulv29691.1.2 switch=n enabled=y phases=2 Linecode=1P_OH_AL_2/0_Rucina_2

New Line.l(r:p30udm20372-p30ulv30794) Units=km Length=0.014316200000000001 bus1=p30udm20372.1.2 bus2=p30ulv30794.1.2 switch=n enabled=y phases=2 Linecode=1P_OH_AL_2/0_Rucina_2

New Line.l(r:p30udm20372-p30udt4333lv) Units=km Length=0.0196373 bus1=p30udt4333lv.1.2 bus2=p30udm20372.1.2 switch=n enabled=y phases=2 Linecode=1P_OH_AL_2/0_Rucina_2_1

New Line.l(r:p30udm20373-p30ulv30777) Units=km Length=0.015769 bus1=p30udm20373.1.2 bus2=p30ulv30777.1.2 switch=n enabled=y phases=2 Linecode=1P_OH_AL_2/0_Rucina_2

New Line.l(r:p30udm20371-p30ulv14186) Units=km Length=0.0153279 bus1=p30udm20371.1.2 bus2=p30ulv14186.1.2 switch=n enabled=y phases=2 Linecode=1P_OH_AL_2/0_Rucina_2

New Line.l(r:p30udm20371-p30udm20373) Units=km Length=0.0196373 bus1=p30udm20373.1.2 bus2=p30udm20371.1.2 switch=n enabled=y phases=2 Linecode=1P_OH_AL_2/0_Rucina_2

New Line.l(r:p30udm20373-p30udt4333lv) Units=km Length=0.019632100000000003 bus1=p30udt4333lv.1.2 bus2=p30udm20373.1.2 switch=n enabled=y phases=2 Linecode=1P_OH_AL_2/0_Rucina_2

New Line.l(r:p30udt4334lv-p30ulv14187) Units=km Length=0.0102351 bus1=p30udt4334lv.1.2 bus2=p30ulv14187.1.2 switch=n enabled=y phases=2 Linecode=1P_OH_AL_2/0_Rucina_2

New Line.l(r:p30udt4334lv-p30ulv29855) Units=km Length=0.0112367 bus1=p30udt4334lv.1.2 bus2=p30ulv29855.1.2 switch=n enabled=y phases=2 Linecode=1P_OH_AL_2/0_Rucina_2

New Line.l(r:p30udt4334lv-p30ulv29897) Units=km Length=0.0319272 bus1=p30udt4334lv.1.2 bus2=p30ulv29897.1.2 switch=n enabled=y phases=2 Linecode=1P_OH_AL_4/0_Zuzara_2

New Line.l(r:p30udt4334lv-p30ulv36657) Units=km Length=0.0408226 bus1=p30udt4334lv.1.2 bus2=p30ulv36657.1.2 switch=n enabled=y phases=2 Linecode=1P_OH_AL_4/0_Zuzara_2

New Line.l(r:p30udm20376-p30ulv14188) Units=km Length=0.0111881 bus1=p30udm20376.1.2 bus2=p30ulv14188.1.2 switch=n enabled=y phases=2 Linecode=1P_OH_AL_2/0_Rucina_2

New Line.l(r:p30udm20376-p30udt4334lv) Units=km Length=0.0151316 bus1=p30udt4334lv.1.2 bus2=p30udm20376.1.2 switch=n enabled=y phases=2 Linecode=1P_OH_AL_2/0_Rucina_2

New Line.l(r:p30udt4335lv-p30ulv29859) Units=km Length=0.0168455 bus1=p30udt4335lv.1.2 bus2=p30ulv29859.1.2 switch=n enabled=y phases=2 Linecode=1P_OH_AL_2/0_Rucina_2

New Line.l(r:p30udt4335lv-p30ulv29889) Units=km Length=0.0179945 bus1=p30udt4335lv.1.2 bus2=p30ulv29889.1.2 switch=n enabled=y phases=2 Linecode=1P_OH_AL_2/0_Rucina_2

New Line.l(r:p30udm20380-p30ulv14189) Units=km Length=0.016291 bus1=p30udm20380.1.2 bus2=p30ulv14189.1.2 switch=n enabled=y phases=2 Linecode=1P_OH_AL_2/0_Rucina_2

New Line.l(r:p30udm20380-p30udt4335lv) Units=km Length=0.0159838 bus1=p30udt4335lv.1.2 bus2=p30udm20380.1.2 switch=n enabled=y phases=2 Linecode=1P_OH_AL_2/0_Rucina_2

New Line.l(r:p30udm20382-p30ulv29869) Units=km Length=0.0192764 bus1=p30udm20382.1.2 bus2=p30ulv29869.1.2 switch=n enabled=y phases=2 Linecode=1P_OH_AL_2/0_Rucina_2

New Line.l(r:p30udm20382-p30ulv29898) Units=km Length=0.0182791 bus1=p30udm20382.1.2 bus2=p30ulv29898.1.2 switch=n enabled=y phases=2 Linecode=1P_OH_AL_2/0_Rucina_2

New Line.l(r:p30udm20382-p30udt4335lv) Units=km Length=0.0159838 bus1=p30udt4335lv.1.2 bus2=p30udm20382.1.2 switch=n enabled=y phases=2 Linecode=1P_OH_AL_2/0_Rucina_2

New Line.l(r:p30udt4336lv-p30ulv14190) Units=km Length=0.008363 bus1=p30udt4336lv.1.2 bus2=p30ulv14190.1.2 switch=n enabled=y phases=2 Linecode=1P_OH_AL_2/0_Rucina_2

New Line.l(r:p30udm20386-p30ulv14191) Units=km Length=0.00788064 bus1=p30udm20386.1.2 bus2=p30ulv14191.1.2 switch=n enabled=y phases=2 Linecode=1P_UG_AL_1/0_Brenau_2

New Line.l(r:p30udm20386-p30ulv14192) Units=km Length=0.0174881 bus1=p30udm20386.1.2 bus2=p30ulv14192.1.2 switch=n enabled=y phases=2 Linecode=1P_UG_AL_4/0_Sweetbriar_2

New Line.l(r:p30udm20386-p30udt4337lv) Units=km Length=0.0333871 bus1=p30udt4337lv.1.2 bus2=p30udm20386.1.2 switch=n enabled=y phases=2 Linecode=1P_OH_AL_4/0_Zuzara_2_1

New Line.l(r:p30udm20388-p30ulv36713) Units=km Length=0.0101971 bus1=p30udm20388.1.2 bus2=p30ulv36713.1.2 switch=n enabled=y phases=2 Linecode=1P_OH_AL_2/0_Rucina_2

New Line.l(r:p30udm20388-p30udt4337lv) Units=km Length=0.0513052 bus1=p30udt4337lv.1.2 bus2=p30udm20388.1.2 switch=n enabled=y phases=2 Linecode=1P_OH_AL_4/0_Zuzara_2

New Line.l(r:p30udt4338lv-p30ulv14200) Units=km Length=0.040765 bus1=p30udt4338lv.1.2 bus2=p30ulv14200.1.2 switch=n enabled=y phases=2 Linecode=1P_OH_AL_4/0_Zuzara_2

New Line.l(r:p30udt4338lv-p30ulv29843) Units=km Length=0.0159949 bus1=p30udt4338lv.1.2 bus2=p30ulv29843.1.2 switch=n enabled=y phases=2 Linecode=1P_OH_AL_2/0_Rucina_2

New Line.l(r:p30udm20391-p30ulv29833) Units=km Length=0.017117 bus1=p30udm20391.1.2 bus2=p30ulv29833.1.2 switch=n enabled=y phases=2 Linecode=1P_OH_AL_2/0_Rucina_2

New Line.l(r:p30udm20391-p30udt4338lv) Units=km Length=0.0145327 bus1=p30udt4338lv.1.2 bus2=p30udm20391.1.2 switch=n enabled=y phases=2 Linecode=1P_OH_AL_2/0_Rucina_2

New Line.l(r:p30udm20393-p30ulv29849) Units=km Length=0.017516000000000004 bus1=p30udm20393.1.2 bus2=p30ulv29849.1.2 switch=n enabled=y phases=2 Linecode=1P_OH_AL_2/0_Rucina_2

New Line.l(r:p30udm20389-p30ulv14194) Units=km Length=0.0180874 bus1=p30udm20389.1.2 bus2=p30ulv14194.1.2 switch=n enabled=y phases=2 Linecode=1P_OH_AL_2/0_Rucina_2

New Line.l(r:p30udm20389-p30udm20393) Units=km Length=0.015121 bus1=p30udm20393.1.2 bus2=p30udm20389.1.2 switch=n enabled=y phases=2 Linecode=1P_OH_AL_2/0_Rucina_2

New Line.l(r:p30udm20393-p30udt4338lv) Units=km Length=0.0145242 bus1=p30udt4338lv.1.2 bus2=p30udm20393.1.2 switch=n enabled=y phases=2 Linecode=1P_OH_AL_2/0_Rucina_2

New Line.l(r:p30udt4340lv-p30ulv14196) Units=km Length=0.016190000000000003 bus1=p30udt4340lv.1.2 bus2=p30ulv14196.1.2 switch=n enabled=y phases=2 Linecode=1P_OH_AL_2/0_Rucina_2

New Line.l(r:p30udt4340lv-p30ulv36686) Units=km Length=0.0147163 bus1=p30udt4340lv.1.2 bus2=p30ulv36686.1.2 switch=n enabled=y phases=2 Linecode=1P_OH_AL_2/0_Rucina_2

New Line.l(r:p30udt4340lv-p30ulv36693) Units=km Length=0.0452981 bus1=p30udt4340lv.1.2 bus2=p30ulv36693.1.2 switch=n enabled=y phases=2 Linecode=1P_OH_AL_4/0_Zuzara_2

New Line.l(r:p30udt4341lv-p30ulv14197) Units=km Length=0.011491600000000001 bus1=p30udt4341lv.1.2 bus2=p30ulv14197.1.2 switch=n enabled=y phases=2 Linecode=1P_OH_AL_2/0_Rucina_2

New Line.l(r:p30udm20399-p30ulv29725) Units=km Length=0.0219676 bus1=p30udm20399.1.2 bus2=p30ulv29725.1.2 switch=n enabled=y phases=2 Linecode=1P_OH_AL_2/0_Rucina_2

New Line.l(r:p30udm20399-p30udt4341lv) Units=km Length=0.06124670000000001 bus1=p30udt4341lv.1.2 bus2=p30udm20399.1.2 switch=n enabled=y phases=2 Linecode=1P_OH_AL_4/0_Zuzara_2

New Line.l(r:p30udm20400-p30ulv29741) Units=km Length=0.014698800000000001 bus1=p30udm20400.1.2 bus2=p30ulv29741.1.2 switch=n enabled=y phases=2 Linecode=1P_OH_AL_2/0_Rucina_2

New Line.l(r:p30udm20400-p30ulv29783) Units=km Length=0.0119171 bus1=p30udm20400.1.2 bus2=p30ulv29783.1.2 switch=n enabled=y phases=2 Linecode=1P_OH_AL_2/0_Rucina_2

New Line.l(r:p30udm20400-p30udt4341lv) Units=km Length=0.0180486 bus1=p30udt4341lv.1.2 bus2=p30udm20400.1.2 switch=n enabled=y phases=2 Linecode=1P_OH_AL_2/0_Rucina_2

New Line.l(r:p30udt4342lv-p30ulv14207) Units=km Length=0.043804 bus1=p30udt4342lv.1.2 bus2=p30ulv14207.1.2 switch=n enabled=y phases=2 Linecode=1P_OH_AL_4/0_Zuzara_2

New Line.l(r:p30udt4342lv-p30ulv14208) Units=km Length=0.0493171 bus1=p30udt4342lv.1.2 bus2=p30ulv14208.1.2 switch=n enabled=y phases=2 Linecode=1P_OH_AL_4/0_Zuzara_2

New Line.l(r:p30udm20403-p30ulv14199) Units=km Length=0.0201105 bus1=p30udm20403.1.2 bus2=p30ulv14199.1.2 switch=n enabled=y phases=2 Linecode=1P_OH_AL_2/0_Rucina_2

New Line.l(r:p30udm20403-p30ulv29775) Units=km Length=0.0425317 bus1=p30udm20403.1.2 bus2=p30ulv29775.1.2 switch=n enabled=y phases=2 Linecode=1P_OH_AL_4/0_Zuzara_2

New Line.l(r:p30udm20403-p30ulv29787) Units=km Length=0.019199200000000003 bus1=p30udm20403.1.2 bus2=p30ulv29787.1.2 switch=n enabled=y phases=2 Linecode=1P_OH_AL_2/0_Rucina_2

New Line.l(r:p30udm20402-p30ulv14198) Units=km Length=0.0205352 bus1=p30udm20402.1.2 bus2=p30ulv14198.1.2 switch=n enabled=y phases=2 Linecode=1P_OH_AL_2/0_Rucina_2

New Line.l(r:p30udm20402-p30ulv29772) Units=km Length=0.0206107 bus1=p30udm20402.1.2 bus2=p30ulv29772.1.2 switch=n enabled=y phases=2 Linecode=1P_OH_AL_2/0_Rucina_2

New Line.l(r:p30udm20402-p30ulv29819) Units=km Length=0.04889700000000001 bus1=p30udm20402.1.2 bus2=p30ulv29819.1.2 switch=n enabled=y phases=2 Linecode=1P_OH_AL_4/0_Zuzara_2

New Line.l(r:p30udm20402-p30udm20403) Units=km Length=0.0181707 bus1=p30udm20403.1.2 bus2=p30udm20402.1.2 switch=n enabled=y phases=2 Linecode=1P_OH_AL_2/0_Rucina_2

New Line.l(r:p30udm20403-p30udt4342lv) Units=km Length=0.0181621 bus1=p30udt4342lv.1.2 bus2=p30udm20403.1.2 switch=n enabled=y phases=2 Linecode=1P_OH_AL_2/0_Rucina_2

New Line.l(r:p30udm20406-p30ulv14210) Units=km Length=0.020538500000000005 bus1=p30udm20406.1.2 bus2=p30ulv14210.1.2 switch=n enabled=y phases=2 Linecode=1P_OH_AL_2/0_Rucina_2

New Line.l(r:p30udm20406-p30ulv29837) Units=km Length=0.020848300000000004 bus1=p30udm20406.1.2 bus2=p30ulv29837.1.2 switch=n enabled=y phases=2 Linecode=1P_OH_AL_2/0_Rucina_2

New Line.l(r:p30udm20406-p30ulv29846) Units=km Length=0.0201118 bus1=p30udm20406.1.2 bus2=p30ulv29846.1.2 switch=n enabled=y phases=2 Linecode=1P_OH_AL_2/0_Rucina_2

New Line.l(r:p30udm20406-p30ulv29847) Units=km Length=0.0443736 bus1=p30udm20406.1.2 bus2=p30ulv29847.1.2 switch=n enabled=y phases=2 Linecode=1P_OH_AL_4/0_Zuzara_2

New Line.l(r:p30udm20414-p30ulv29856) Units=km Length=0.0210431 bus1=p30udm20414.1.2 bus2=p30ulv29856.1.2 switch=n enabled=y phases=2 Linecode=1P_OH_AL_2/0_Rucina_2

New Line.l(r:p30udm20406-p30udm20414) Units=km Length=0.0181621 bus1=p30udm20406.1.2 bus2=p30udm20414.1.2 switch=n enabled=y phases=2 Linecode=1P_OH_AL_2/0_Rucina_2

New Line.l(r:p30udm20406-p30udt4342lv) Units=km Length=0.0181707 bus1=p30udt4342lv.1.2 bus2=p30udm20406.1.2 switch=n enabled=y phases=2 Linecode=1P_OH_AL_2/0_Rucina_2

New Line.l(r:p30udt4343lv-p30ulv29896) Units=km Length=0.011927300000000002 bus1=p30udt4343lv.1.2 bus2=p30ulv29896.1.2 switch=n enabled=y phases=2 Linecode=1P_OH_AL_2/0_Rucina_2

New Line.l(r:p30udm20415-p30ulv14201) Units=km Length=0.0151654 bus1=p30udm20415.1.2 bus2=p30ulv14201.1.2 switch=n enabled=y phases=2 Linecode=1P_OH_AL_2/0_Rucina_2

New Line.l(r:p30udm20415-p30ulv36670) Units=km Length=0.010891 bus1=p30udm20415.1.2 bus2=p30ulv36670.1.2 switch=n enabled=y phases=2 Linecode=1P_OH_AL_2/0_Rucina_2

New Line.l(r:p30udm20415-p30udt4343lv) Units=km Length=0.0154805 bus1=p30udt4343lv.1.2 bus2=p30udm20415.1.2 switch=n enabled=y phases=2 Linecode=1P_OH_AL_2/0_Rucina_2

New Line.l(r:p30udm20416-p30ulv14296) Units=km Length=0.0125358 bus1=p30udm20416.1.2 bus2=p30ulv14296.1.2 switch=n enabled=y phases=2 Linecode=1P_OH_AL_2/0_Rucina_2

New Line.l(r:p30udm20416-p30ulv29887) Units=km Length=0.0131505 bus1=p30udm20416.1.2 bus2=p30ulv29887.1.2 switch=n enabled=y phases=2 Linecode=1P_OH_AL_2/0_Rucina_2

New Line.l(r:p30udm20416-p30udt4343lv) Units=km Length=0.0154858 bus1=p30udt4343lv.1.2 bus2=p30udm20416.1.2 switch=n enabled=y phases=2 Linecode=1P_OH_AL_2/0_Rucina_2

New Line.l(r:p30udt4345lv-p30ulv14205) Units=km Length=0.00972556 bus1=p30udt4345lv.1.2 bus2=p30ulv14205.1.2 switch=n enabled=y phases=2 Linecode=1P_OH_AL_2/0_Rucina_2

New Line.l(r:p30udt4345lv-p30ulv29753) Units=km Length=0.0404745 bus1=p30udt4345lv.1.2 bus2=p30ulv29753.1.2 switch=n enabled=y phases=2 Linecode=1P_OH_AL_4/0_Zuzara_2

New Line.l(r:p30udm20423-p30ulv14204) Units=km Length=0.00985676 bus1=p30udm20423.1.2 bus2=p30ulv14204.1.2 switch=n enabled=y phases=2 Linecode=1P_OH_AL_2/0_Rucina_2

New Line.l(r:p30udm20422-p30ulv14203) Units=km Length=0.0174758 bus1=p30udm20422.1.2 bus2=p30ulv14203.1.2 switch=n enabled=y phases=2 Linecode=1P_OH_AL_2/0_Rucina_2

New Line.l(r:p30udm20422-p30ulv29760) Units=km Length=0.0205548 bus1=p30udm20422.1.2 bus2=p30ulv29760.1.2 switch=n enabled=y phases=2 Linecode=1P_OH_AL_2/0_Rucina_2

New Line.l(r:p30udm20422-p30udm20423) Units=km Length=0.0613726 bus1=p30udm20423.1.2 bus2=p30udm20422.1.2 switch=n enabled=y phases=2 Linecode=1P_OH_AL_4/0_Zuzara_2

New Line.l(r:p30udm20423-p30udt4345lv) Units=km Length=0.0147695 bus1=p30udt4345lv.1.2 bus2=p30udm20423.1.2 switch=n enabled=y phases=2 Linecode=1P_OH_AL_2/0_Rucina_2

New Line.l(r:p30udm20425-p30ulv14206) Units=km Length=0.0136093 bus1=p30udm20425.1.2 bus2=p30ulv14206.1.2 switch=n enabled=y phases=2 Linecode=1P_OH_AL_2/0_Rucina_2

New Line.l(r:p30udm20426-p30ulv29720) Units=km Length=0.0125071 bus1=p30udm20426.1.2 bus2=p30ulv29720.1.2 switch=n enabled=y phases=2 Linecode=1P_OH_AL_2/0_Rucina_2

New Line.l(r:p30udm20425-p30udm20426) Units=km Length=0.0191152 bus1=p30udm20425.1.2 bus2=p30udm20426.1.2 switch=n enabled=y phases=2 Linecode=1P_OH_AL_2/0_Rucina_2

New Line.l(r:p30udm20425-p30udt4345lv) Units=km Length=0.0191118 bus1=p30udt4345lv.1.2 bus2=p30udm20425.1.2 switch=n enabled=y phases=2 Linecode=1P_OH_AL_2/0_Rucina_2

New Line.l(r:p30udt4346lv-p30ulv14209) Units=km Length=0.0208455 bus1=p30udt4346lv.1.2 bus2=p30ulv14209.1.2 switch=n enabled=y phases=2 Linecode=1P_OH_AL_2/0_Rucina_2

New Line.l(r:p30udt4347lv-p30ulv14213) Units=km Length=0.011426300000000002 bus1=p30udt4347lv.1.2 bus2=p30ulv14213.1.2 switch=n enabled=y phases=2 Linecode=1P_OH_AL_2/0_Rucina_2

New Line.l(r:p30udm20430-p30ulv14211) Units=km Length=0.00931452 bus1=p30udm20430.1.2 bus2=p30ulv14211.1.2 switch=n enabled=y phases=2 Linecode=1P_OH_AL_2/0_Rucina_2

New Line.l(r:p30udm20430-p30udt4347lv) Units=km Length=0.016956200000000005 bus1=p30udt4347lv.1.2 bus2=p30udm20430.1.2 switch=n enabled=y phases=2 Linecode=1P_OH_AL_2/0_Rucina_2

New Line.l(r:p30udm20432-p30ulv29845) Units=km Length=0.0147322 bus1=p30udm20432.1.2 bus2=p30ulv29845.1.2 switch=n enabled=y phases=2 Linecode=1P_OH_AL_2/0_Rucina_2

New Line.l(r:p30udm20432-p30udt4347lv) Units=km Length=0.01697 bus1=p30udt4347lv.1.2 bus2=p30udm20432.1.2 switch=n enabled=y phases=2 Linecode=1P_OH_AL_2/0_Rucina_2

New Line.l(r:p30udt4348lv-p30ulv14214) Units=km Length=0.0167652 bus1=p30udt4348lv.1.2 bus2=p30ulv14214.1.2 switch=n enabled=y phases=2 Linecode=1P_UG_AL_1/0_Brenau_2

New Line.l(r:p30udt4348lv-p30ulv29804) Units=km Length=0.0188445 bus1=p30udt4348lv.1.2 bus2=p30ulv29804.1.2 switch=n enabled=y phases=2 Linecode=1P_UG_AL_1/0_Brenau_2

New Line.l(r:p30udm20434-p30ulv14215) Units=km Length=0.0188067 bus1=p30udm20434.1.2 bus2=p30ulv14215.1.2 switch=n enabled=y phases=2 Linecode=1P_UG_AL_1/0_Brenau_2

New Line.l(r:p30udm20435-p30ulv14217) Units=km Length=0.018826000000000002 bus1=p30udm20435.1.2 bus2=p30ulv14217.1.2 switch=n enabled=y phases=2 Linecode=1P_UG_AL_1/0_Brenau_2

New Line.l(r:p30udm20434-p30udm20435) Units=km Length=0.00997489 bus1=p30udm20434.1.2 bus2=p30udm20435.1.2 switch=n enabled=y phases=2 Linecode=1P_UG_AL_1/0_Brenau_2

New Line.l(r:p30udm20434-p30udt4348lv) Units=km Length=0.00998864 bus1=p30udt4348lv.1.2 bus2=p30udm20434.1.2 switch=n enabled=y phases=2 Linecode=1P_UG_AL_1/0_Brenau_2

New Line.l(r:p30udm20436-p30ulv14219) Units=km Length=0.0164331 bus1=p30udm20436.1.2 bus2=p30ulv14219.1.2 switch=n enabled=y phases=2 Linecode=1P_UG_AL_1/0_Brenau_2

New Line.l(r:p30udm20436-p30ulv14231) Units=km Length=0.0151301 bus1=p30udm20436.1.2 bus2=p30ulv14231.1.2 switch=n enabled=y phases=2 Linecode=1P_UG_AL_1/0_Brenau_2

New Line.l(r:p30udm20436-p30udt4348lv) Units=km Length=0.00998013 bus1=p30udt4348lv.1.2 bus2=p30udm20436.1.2 switch=n enabled=y phases=2 Linecode=1P_UG_AL_1/0_Brenau_2

New Line.l(r:p30udt4349lv-p30ulv14218) Units=km Length=0.0132858 bus1=p30udt4349lv.1.2 bus2=p30ulv14218.1.2 switch=n enabled=y phases=2 Linecode=1P_OH_AL_2/0_Rucina_2

New Line.l(r:p30udt4350lv-p30ulv14220) Units=km Length=0.0184351 bus1=p30udt4350lv.1.2 bus2=p30ulv14220.1.2 switch=n enabled=y phases=2 Linecode=1P_UG_AL_4/0_Sweetbriar_2

New Line.l(r:p30udt4350lv-p30ulv29752) Units=km Length=0.0174443 bus1=p30udt4350lv.1.2 bus2=p30ulv29752.1.2 switch=n enabled=y phases=2 Linecode=1P_UG_AL_1/0_Brenau_2

New Line.l(r:p30udm20442-p30ulv29763) Units=km Length=0.014407 bus1=p30udm20442.1.2 bus2=p30ulv29763.1.2 switch=n enabled=y phases=2 Linecode=1P_UG_AL_1/0_Brenau_2

New Line.l(r:p30udm20442-p30ulv29778) Units=km Length=0.0175152 bus1=p30udm20442.1.2 bus2=p30ulv29778.1.2 switch=n enabled=y phases=2 Linecode=1P_UG_AL_1/0_Brenau_2

New Line.l(r:p30udm20442-p30udt4350lv) Units=km Length=0.00998013 bus1=p30udt4350lv.1.2 bus2=p30udm20442.1.2 switch=n enabled=y phases=2 Linecode=1P_UG_AL_2/0_Converse_2

New Line.l(r:p30udt4351lv-p30ulv29702) Units=km Length=0.0164119 bus1=p30udt4351lv.1.2 bus2=p30ulv29702.1.2 switch=n enabled=y phases=2 Linecode=1P_UG_AL_1/0_Brenau_2

New Line.l(r:p30udt4351lv-p30ulv29743) Units=km Length=0.03582400000000001 bus1=p30udt4351lv.1.2 bus2=p30ulv29743.1.2 switch=n enabled=y phases=2 Linecode=1P_UG_AL_1/0_Brenau_2

New Line.l(r:p30udm20444-p30ulv14221) Units=km Length=0.015253400000000002 bus1=p30udm20444.1.2 bus2=p30ulv14221.1.2 switch=n enabled=y phases=2 Linecode=1P_UG_AL_1/0_Brenau_2

New Line.l(r:p30udm20444-p30ulv29737) Units=km Length=0.0152153 bus1=p30udm20444.1.2 bus2=p30ulv29737.1.2 switch=n enabled=y phases=2 Linecode=1P_UG_AL_1/0_Brenau_2

New Line.l(r:p30udm20444-p30udt4351lv) Units=km Length=0.00998013 bus1=p30udt4351lv.1.2 bus2=p30udm20444.1.2 switch=n enabled=y phases=2 Linecode=1P_UG_AL_1/0_Brenau_2

New Line.l(r:p30udm20446-p30ulv29711) Units=km Length=0.0132746 bus1=p30udm20446.1.2 bus2=p30ulv29711.1.2 switch=n enabled=y phases=2 Linecode=1P_UG_AL_1/0_Brenau_2

New Line.l(r:p30udm20446-p30udt4351lv) Units=km Length=0.00998864 bus1=p30udt4351lv.1.2 bus2=p30udm20446.1.2 switch=n enabled=y phases=2 Linecode=1P_UG_AL_1/0_Brenau_2

New Line.l(r:p30udt4352lv-p30ulv14230) Units=km Length=0.019079800000000004 bus1=p30udt4352lv.1.2 bus2=p30ulv14230.1.2 switch=n enabled=y phases=2 Linecode=1P_UG_AL_1/0_Brenau_2

New Line.l(r:p30udt4352lv-p30ulv29770) Units=km Length=0.0176148 bus1=p30udt4352lv.1.2 bus2=p30ulv29770.1.2 switch=n enabled=y phases=2 Linecode=1P_UG_AL_1/0_Brenau_2

New Line.l(r:p30udm20449-p30ulv14222) Units=km Length=0.0158449 bus1=p30udm20449.1.2 bus2=p30ulv14222.1.2 switch=n enabled=y phases=2 Linecode=1P_UG_AL_1/0_Brenau_2

New Line.l(r:p30udm20449-p30ulv29759) Units=km Length=0.0171442 bus1=p30udm20449.1.2 bus2=p30ulv29759.1.2 switch=n enabled=y phases=2 Linecode=1P_UG_AL_1/0_Brenau_2

New Line.l(r:p30udm20452-p30ulv29745) Units=km Length=0.0179472 bus1=p30udm20452.1.2 bus2=p30ulv29745.1.2 switch=n enabled=y phases=2 Linecode=1P_UG_AL_1/0_Brenau_2

New Line.l(r:p30udm20449-p30udm20452) Units=km Length=0.00998864 bus1=p30udm20449.1.2 bus2=p30udm20452.1.2 switch=n enabled=y phases=2 Linecode=1P_UG_AL_1/0_Brenau_2

New Line.l(r:p30udm20449-p30udt4352lv) Units=km Length=0.00998013 bus1=p30udt4352lv.1.2 bus2=p30udm20449.1.2 switch=n enabled=y phases=2 Linecode=1P_UG_AL_4/0_Sweetbriar_2

New Line.l(r:p30udm20450-p30ulv14229) Units=km Length=0.0172231 bus1=p30udm20450.1.2 bus2=p30ulv14229.1.2 switch=n enabled=y phases=2 Linecode=1P_UG_AL_1/0_Brenau_2

New Line.l(r:p30udm20450-p30udt4352lv) Units=km Length=0.00998013 bus1=p30udt4352lv.1.2 bus2=p30udm20450.1.2 switch=n enabled=y phases=2 Linecode=1P_UG_AL_1/0_Brenau_2

New Line.l(r:p30udt4353lv-p30ulv14223) Units=km Length=0.0264729 bus1=p30udt4353lv.1.2 bus2=p30ulv14223.1.2 switch=n enabled=y phases=2 Linecode=1P_OH_AL_2/0_Rucina_2

New Line.l(r:p30udt4353lv-p30ulv14224) Units=km Length=0.0223095 bus1=p30udt4353lv.1.2 bus2=p30ulv14224.1.2 switch=n enabled=y phases=2 Linecode=1P_OH_AL_2/0_Rucina_2

New Line.l(r:p30udt4353lv-p30ulv29694) Units=km Length=0.0154019 bus1=p30udt4353lv.1.2 bus2=p30ulv29694.1.2 switch=n enabled=y phases=2 Linecode=1P_OH_AL_2/0_Rucina_2

New Line.l(r:p30udt4353lv-p30ulv29727) Units=km Length=0.035611 bus1=p30udt4353lv.1.2 bus2=p30ulv29727.1.2 switch=n enabled=y phases=2 Linecode=1P_OH_AL_4/0_Zuzara_2

New Line.l(r:p30udt4354lv-p30ulv29688) Units=km Length=0.014134 bus1=p30udt4354lv.1.2 bus2=p30ulv29688.1.2 switch=n enabled=y phases=2 Linecode=1P_OH_AL_2/0_Rucina_2

New Line.l(r:p30udt4354lv-p30ulv29704) Units=km Length=0.0172311 bus1=p30udt4354lv.1.2 bus2=p30ulv29704.1.2 switch=n enabled=y phases=2 Linecode=1P_OH_AL_2/0_Rucina_2

New Line.l(r:p30udt4354lv-p30ulv29709) Units=km Length=0.0172627 bus1=p30udt4354lv.1.2 bus2=p30ulv29709.1.2 switch=n enabled=y phases=2 Linecode=1P_OH_AL_2/0_Rucina_2

New Line.l(r:p30udm20459-p30ulv14225) Units=km Length=0.017237600000000002 bus1=p30udm20459.1.2 bus2=p30ulv14225.1.2 switch=n enabled=y phases=2 Linecode=1P_OH_AL_2/0_Rucina_2

New Line.l(r:p30udm20459-p30ulv29697) Units=km Length=0.0174661 bus1=p30udm20459.1.2 bus2=p30ulv29697.1.2 switch=n enabled=y phases=2 Linecode=1P_OH_AL_2/0_Rucina_2

New Line.l(r:p30udm20459-p30udt4354lv) Units=km Length=0.0184233 bus1=p30udt4354lv.1.2 bus2=p30udm20459.1.2 switch=n enabled=y phases=2 Linecode=1P_OH_AL_2/0_Rucina_2

New Line.l(r:p30udt4355lv-p30ulv14228) Units=km Length=0.018134 bus1=p30udt4355lv.1.2 bus2=p30ulv14228.1.2 switch=n enabled=y phases=2 Linecode=1P_OH_AL_2/0_Rucina_2

New Line.l(r:p30udt4355lv-p30ulv29716) Units=km Length=0.0167527 bus1=p30udt4355lv.1.2 bus2=p30ulv29716.1.2 switch=n enabled=y phases=2 Linecode=1P_OH_AL_2/0_Rucina_2

New Line.l(r:p30udt4355lv-p30ulv29754) Units=km Length=0.0172503 bus1=p30udt4355lv.1.2 bus2=p30ulv29754.1.2 switch=n enabled=y phases=2 Linecode=1P_OH_AL_2/0_Rucina_2

New Line.l(r:p30udm20464-p30ulv14226) Units=km Length=0.0192334 bus1=p30udm20464.1.2 bus2=p30ulv14226.1.2 switch=n enabled=y phases=2 Linecode=1P_OH_AL_2/0_Rucina_2

New Line.l(r:p30udm20464-p30ulv14227) Units=km Length=0.0181027 bus1=p30udm20464.1.2 bus2=p30ulv14227.1.2 switch=n enabled=y phases=2 Linecode=1P_OH_AL_2/0_Rucina_2

New Line.l(r:p30udm20464-p30ulv29706) Units=km Length=0.0169361 bus1=p30udm20464.1.2 bus2=p30ulv29706.1.2 switch=n enabled=y phases=2 Linecode=1P_OH_AL_2/0_Rucina_2

New Line.l(r:p30udm20474-p30ulv30804) Units=km Length=0.00326671 bus1=p30udm20474.1.2 bus2=p30ulv30804.1.2 switch=n enabled=y phases=2 Linecode=1P_OH_AL_4_Periwinkle_2

New Line.l(r:p30udm20474-p30ulv30824) Units=km Length=0.0127735 bus1=p30udm20474.1.2 bus2=p30ulv30824.1.2 switch=n enabled=y phases=2 Linecode=1P_OH_AL_2/0_Rucina_2

New Line.l(r:p30udm20464-p30udm20474) Units=km Length=0.0770434 bus1=p30udm20464.1.2 bus2=p30udm20474.1.2 switch=n enabled=y phases=2 Linecode=1P_OH_AL_4/0_Zuzara_2

New Line.l(r:p30udm20464-p30udt4355lv) Units=km Length=0.0184181 bus1=p30udt4355lv.1.2 bus2=p30udm20464.1.2 switch=n enabled=y phases=2 Linecode=1P_OH_AL_2/0_Rucina_2

New Line.l(r:p30udm20469-p30ulv29736) Units=km Length=0.0171279 bus1=p30udm20469.1.2 bus2=p30ulv29736.1.2 switch=n enabled=y phases=2 Linecode=1P_OH_AL_2/0_Rucina_2

New Line.l(r:p30udm20469-p30ulv29767) Units=km Length=0.0296738 bus1=p30udm20469.1.2 bus2=p30ulv29767.1.2 switch=n enabled=y phases=2 Linecode=1P_OH_AL_4/0_Zuzara_2

New Line.l(r:p30udm20469-p30ulv29769) Units=km Length=0.0205855 bus1=p30udm20469.1.2 bus2=p30ulv29769.1.2 switch=n enabled=y phases=2 Linecode=1P_OH_AL_2/0_Rucina_2

New Line.l(r:p30udm20473-p30ulv29779) Units=km Length=0.0154816 bus1=p30udm20473.1.2 bus2=p30ulv29779.1.2 switch=n enabled=y phases=2 Linecode=1P_OH_AL_2/0_Rucina_2

New Line.l(r:p30udm20469-p30udm20473) Units=km Length=0.0513123 bus1=p30udm20469.1.2 bus2=p30udm20473.1.2 switch=n enabled=y phases=2 Linecode=1P_OH_AL_4/0_Zuzara_2

New Line.l(r:p30udm20469-p30udt4355lv) Units=km Length=0.0184233 bus1=p30udt4355lv.1.2 bus2=p30udm20469.1.2 switch=n enabled=y phases=2 Linecode=1P_OH_AL_2/0_Rucina_2

New Line.l(r:p30udt4356lv-p30ulv14281) Units=km Length=0.0123824 bus1=p30udt4356lv.1.2 bus2=p30ulv14281.1.2 switch=n enabled=y phases=2 Linecode=1P_OH_AL_2/0_Rucina_2

New Line.l(r:p30udt4356lv-p30ulv14286) Units=km Length=0.0451467 bus1=p30udt4356lv.1.2 bus2=p30ulv14286.1.2 switch=n enabled=y phases=2 Linecode=1P_OH_AL_4/0_Zuzara_2

New Line.l(r:p30udt4356lv-p30ulv29790) Units=km Length=0.0163981 bus1=p30udt4356lv.1.2 bus2=p30ulv29790.1.2 switch=n enabled=y phases=2 Linecode=1P_OH_AL_2/0_Rucina_2

New Line.l(r:p30udm20476-p30ulv14232) Units=km Length=0.0153465 bus1=p30udm20476.1.2 bus2=p30ulv14232.1.2 switch=n enabled=y phases=2 Linecode=1P_OH_AL_2/0_Rucina_2

New Line.l(r:p30udm20476-p30ulv14282) Units=km Length=0.0119724 bus1=p30udm20476.1.2 bus2=p30ulv14282.1.2 switch=n enabled=y phases=2 Linecode=1P_OH_AL_2/0_Rucina_2

New Line.l(r:p30udm20476-p30ulv14283) Units=km Length=0.015097100000000002 bus1=p30udm20476.1.2 bus2=p30ulv14283.1.2 switch=n enabled=y phases=2 Linecode=1P_OH_AL_2/0_Rucina_2

New Line.l(r:p30udm20476-p30ulv14285) Units=km Length=0.0357497 bus1=p30udm20476.1.2 bus2=p30ulv14285.1.2 switch=n enabled=y phases=2 Linecode=1P_OH_AL_4/0_Zuzara_2

New Line.l(r:p30udm20476-p30udt4356lv) Units=km Length=0.019406 bus1=p30udt4356lv.1.2 bus2=p30udm20476.1.2 switch=n enabled=y phases=2 Linecode=1P_OH_AL_2/0_Rucina_2

New Line.l(r:p30udm20482-p30ulv29784) Units=km Length=0.0152985 bus1=p30udm20482.1.2 bus2=p30ulv29784.1.2 switch=n enabled=y phases=2 Linecode=1P_OH_AL_2/0_Rucina_2

New Line.l(r:p30udm20482-p30ulv29813) Units=km Length=0.00961252 bus1=p30udm20482.1.2 bus2=p30ulv29813.1.2 switch=n enabled=y phases=2 Linecode=1P_OH_AL_2/0_Rucina_2

New Line.l(r:p30udm20482-p30udt4356lv) Units=km Length=0.0194146 bus1=p30udt4356lv.1.2 bus2=p30udm20482.1.2 switch=n enabled=y phases=2 Linecode=1P_OH_AL_2/0_Rucina_2

New Line.l(r:p30udt4358lv-p30ulv14235) Units=km Length=0.0126895 bus1=p30udt4358lv.1.2 bus2=p30ulv14235.1.2 switch=n enabled=y phases=2 Linecode=1P_OH_AL_2/0_Rucina_2

New Line.l(r:p30udt4358lv-p30ulv14267) Units=km Length=0.0109262 bus1=p30udt4358lv.1.2 bus2=p30ulv14267.1.2 switch=n enabled=y phases=2 Linecode=1P_OH_AL_2/0_Rucina_2

New Line.l(r:p30udm20494-p30ulv14236) Units=km Length=0.0116682 bus1=p30udm20494.1.2 bus2=p30ulv14236.1.2 switch=n enabled=y phases=2 Linecode=1P_OH_AL_2/0_Rucina_2

New Line.l(r:p30udm20494-p30ulv14266) Units=km Length=0.0115741 bus1=p30udm20494.1.2 bus2=p30ulv14266.1.2 switch=n enabled=y phases=2 Linecode=1P_OH_AL_2/0_Rucina_2

New Line.l(r:p30udm20494-p30ulv29800) Units=km Length=0.0300526 bus1=p30udm20494.1.2 bus2=p30ulv29800.1.2 switch=n enabled=y phases=2 Linecode=1P_OH_AL_4/0_Zuzara_2

New Line.l(r:p30udm20495-p30ulv14265) Units=km Length=0.011159600000000002 bus1=p30udm20495.1.2 bus2=p30ulv14265.1.2 switch=n enabled=y phases=2 Linecode=1P_OH_AL_2/0_Rucina_2

New Line.l(r:p30udm20494-p30udm20495) Units=km Length=0.0197691 bus1=p30udm20494.1.2 bus2=p30udm20495.1.2 switch=n enabled=y phases=2 Linecode=1P_OH_AL_2/0_Rucina_2

New Line.l(r:p30udm20494-p30udt4358lv) Units=km Length=0.0197691 bus1=p30udt4358lv.1.2 bus2=p30udm20494.1.2 switch=n enabled=y phases=2 Linecode=1P_OH_AL_2/0_Rucina_2

New Line.l(r:p30udm20498-p30ulv29758) Units=km Length=0.011461 bus1=p30udm20498.1.2 bus2=p30ulv29758.1.2 switch=n enabled=y phases=2 Linecode=1P_OH_AL_2/0_Rucina_2

New Line.l(r:p30udm20498-p30ulv29799) Units=km Length=0.010535900000000003 bus1=p30udm20498.1.2 bus2=p30ulv29799.1.2 switch=n enabled=y phases=2 Linecode=1P_OH_AL_2/0_Rucina_2

New Line.l(r:p30udm20498-p30udt4358lv) Units=km Length=0.0197777 bus1=p30udt4358lv.1.2 bus2=p30udm20498.1.2 switch=n enabled=y phases=2 Linecode=1P_OH_AL_2/0_Rucina_2

New Line.l(r:p30udt4375lv-p30ulv14273) Units=km Length=0.0186838 bus1=p30udt4375lv.1.2 bus2=p30ulv14273.1.2 switch=n enabled=y phases=2 Linecode=1P_OH_AL_2/0_Rucina_2

New Line.l(r:p30udt4375lv-p30ulv14275) Units=km Length=0.0440188 bus1=p30udt4375lv.1.2 bus2=p30ulv14275.1.2 switch=n enabled=y phases=2 Linecode=1P_OH_AL_4/0_Zuzara_2

New Line.l(r:p30udt4375lv-p30ulv29885) Units=km Length=0.0188968 bus1=p30udt4375lv.1.2 bus2=p30ulv29885.1.2 switch=n enabled=y phases=2 Linecode=1P_OH_AL_2/0_Rucina_2

New Line.l(r:p30udt4375lv-p30ulv29895) Units=km Length=0.0189562 bus1=p30udt4375lv.1.2 bus2=p30ulv29895.1.2 switch=n enabled=y phases=2 Linecode=1P_OH_AL_2/0_Rucina_2

New Line.l(r:p30udm20635-p30ulv14272) Units=km Length=0.0170554 bus1=p30udm20635.1.2 bus2=p30ulv14272.1.2 switch=n enabled=y phases=2 Linecode=1P_OH_AL_2/0_Rucina_2

New Line.l(r:p30udm20635-p30ulv14274) Units=km Length=0.0421158 bus1=p30udm20635.1.2 bus2=p30ulv14274.1.2 switch=n enabled=y phases=2 Linecode=1P_OH_AL_4/0_Zuzara_2

New Line.l(r:p30udm20635-p30ulv29851) Units=km Length=0.014113900000000002 bus1=p30udm20635.1.2 bus2=p30ulv29851.1.2 switch=n enabled=y phases=2 Linecode=1P_OH_AL_2/0_Rucina_2

New Line.l(r:p30udm20635-p30ulv29874) Units=km Length=0.0176201 bus1=p30udm20635.1.2 bus2=p30ulv29874.1.2 switch=n enabled=y phases=2 Linecode=1P_OH_AL_2/0_Rucina_2

New Line.l(r:p30udm20635-p30udt4375lv) Units=km Length=0.0189955 bus1=p30udt4375lv.1.2 bus2=p30udm20635.1.2 switch=n enabled=y phases=2 Linecode=1P_OH_AL_2/0_Rucina_2

New Line.l(r:p30udm20639-p30ulv14277) Units=km Length=0.019359 bus1=p30udm20639.1.2 bus2=p30ulv14277.1.2 switch=n enabled=y phases=2 Linecode=1P_OH_AL_2/0_Rucina_2

New Line.l(r:p30udm20639-p30udt4375lv) Units=km Length=0.0189818 bus1=p30udt4375lv.1.2 bus2=p30udm20639.1.2 switch=n enabled=y phases=2 Linecode=1P_OH_AL_2/0_Rucina_2

New Line.l(r:p30udt4376lv-p30ulv17621) Units=km Length=0.010679400000000002 bus1=p30udt4376lv.1.2 bus2=p30ulv17621.1.2 switch=n enabled=y phases=2 Linecode=1P_UG_AL_1/0_Brenau_2

New Line.l(r:p30udm20644-p30ulv14278) Units=km Length=0.014077900000000003 bus1=p30udm20644.1.2 bus2=p30ulv14278.1.2 switch=n enabled=y phases=2 Linecode=1P_UG_AL_1/0_Brenau_2

New Line.l(r:p30udm20644-p30ulv14280) Units=km Length=0.0150795 bus1=p30udm20644.1.2 bus2=p30ulv14280.1.2 switch=n enabled=y phases=2 Linecode=1P_UG_AL_1/0_Brenau_2

New Line.l(r:p30udm20644-p30udt4376lv) Units=km Length=0.00987863 bus1=p30udt4376lv.1.2 bus2=p30udm20644.1.2 switch=n enabled=y phases=2 Linecode=1P_UG_AL_1/0_Brenau_2

New Line.l(r:p30udm20645-p30ulv14279) Units=km Length=0.014182 bus1=p30udm20645.1.2 bus2=p30ulv14279.1.2 switch=n enabled=y phases=2 Linecode=1P_OH_AL_2/0_Rucina_2

New Line.l(r:p30udm20645-p30udt4376lv) Units=km Length=0.041637900000000005 bus1=p30udt4376lv.1.2 bus2=p30udm20645.1.2 switch=n enabled=y phases=2 Linecode=1P_OH_AL_4/0_Zuzara_2

New Line.l(r:p30udt4377lv-p30ulv14294) Units=km Length=0.0161247 bus1=p30udt4377lv.1.2 bus2=p30ulv14294.1.2 switch=n enabled=y phases=2 Linecode=1P_UG_AL_1/0_Brenau_2

New Line.l(r:p30udm20650-p30ulv14293) Units=km Length=0.0435556 bus1=p30udm20650.1.2 bus2=p30ulv14293.1.2 switch=n enabled=y phases=2 Linecode=1P_UG_AL_1/0_Brenau_2

New Line.l(r:p30udm20650-p30ulv29872) Units=km Length=0.0190146 bus1=p30udm20650.1.2 bus2=p30ulv29872.1.2 switch=n enabled=y phases=2 Linecode=1P_UG_AL_1/0_Brenau_2

New Line.l(r:p30udm20649-p30ulv14292) Units=km Length=0.0436411 bus1=p30udm20649.1.2 bus2=p30ulv14292.1.2 switch=n enabled=y phases=2 Linecode=1P_UG_AL_1/0_Brenau_2

New Line.l(r:p30udm20649-p30ulv29863) Units=km Length=0.0157629 bus1=p30udm20649.1.2 bus2=p30ulv29863.1.2 switch=n enabled=y phases=2 Linecode=1P_UG_AL_1/0_Brenau_2

New Line.l(r:p30udm20656-p30ulv29890) Units=km Length=0.0167395 bus1=p30udm20656.1.2 bus2=p30ulv29890.1.2 switch=n enabled=y phases=2 Linecode=1P_UG_AL_1/0_Brenau_2

New Line.l(r:p30udm20648-p30ulv14284) Units=km Length=0.0165921 bus1=p30udm20648.1.2 bus2=p30ulv14284.1.2 switch=n enabled=y phases=2 Linecode=1P_UG_AL_1/0_Brenau_2

New Line.l(r:p30udm20648-p30ulv29878) Units=km Length=0.0152697 bus1=p30udm20648.1.2 bus2=p30ulv29878.1.2 switch=n enabled=y phases=2 Linecode=1P_UG_AL_1/0_Brenau_2

New Line.l(r:p30udm20648-p30udm20656) Units=km Length=0.00998484 bus1=p30udm20656.1.2 bus2=p30udm20648.1.2 switch=n enabled=y phases=2 Linecode=1P_UG_AL_1/0_Brenau_2

New Line.l(r:p30udm20649-p30udm20656) Units=km Length=0.00999338 bus1=p30udm20649.1.2 bus2=p30udm20656.1.2 switch=n enabled=y phases=2 Linecode=1P_UG_AL_1/0_Brenau_2

New Line.l(r:p30udm20649-p30udm20650) Units=km Length=0.00998484 bus1=p30udm20650.1.2 bus2=p30udm20649.1.2 switch=n enabled=y phases=2 Linecode=1P_UG_AL_4/0_Sweetbriar_2

New Line.l(r:p30udm20650-p30udt4377lv) Units=km Length=0.00999338 bus1=p30udt4377lv.1.2 bus2=p30udm20650.1.2 switch=n enabled=y phases=2 Linecode=1P_UG_AL_4/0_Sweetbriar_2

New Line.l(r:p30udm20655-p30ulv29888) Units=km Length=0.0162365 bus1=p30udm20655.1.2 bus2=p30ulv29888.1.2 switch=n enabled=y phases=2 Linecode=1P_UG_AL_1/0_Brenau_2

New Line.l(r:p30udm20655-p30ulv36661) Units=km Length=0.0156519 bus1=p30udm20655.1.2 bus2=p30ulv36661.1.2 switch=n enabled=y phases=2 Linecode=1P_UG_AL_1/0_Brenau_2

New Line.l(r:p30udm20657-p30ulv29899) Units=km Length=0.0350382 bus1=p30udm20657.1.2 bus2=p30ulv29899.1.2 switch=n enabled=y phases=2 Linecode=1P_UG_AL_1/0_Brenau_2

New Line.l(r:p30udm20657-p30ulv29900) Units=km Length=0.0158509 bus1=p30udm20657.1.2 bus2=p30ulv29900.1.2 switch=n enabled=y phases=2 Linecode=1P_UG_AL_1/0_Brenau_2

New Line.l(r:p30udm20657-p30ulv36669) Units=km Length=0.015542300000000002 bus1=p30udm20657.1.2 bus2=p30ulv36669.1.2 switch=n enabled=y phases=2 Linecode=1P_UG_AL_1/0_Brenau_2

New Line.l(r:p30udm20657-p30ulv36683) Units=km Length=0.04218530000000001 bus1=p30udm20657.1.2 bus2=p30ulv36683.1.2 switch=n enabled=y phases=2 Linecode=1P_UG_AL_1/0_Brenau_2

New Line.l(r:p30udm20655-p30udm20657) Units=km Length=0.00998484 bus1=p30udm20655.1.2 bus2=p30udm20657.1.2 switch=n enabled=y phases=2 Linecode=1P_UG_AL_2/0_Converse_2

New Line.l(r:p30udm20655-p30udt4377lv) Units=km Length=0.00999338 bus1=p30udt4377lv.1.2 bus2=p30udm20655.1.2 switch=n enabled=y phases=2 Linecode=1P_UG_AL_4/0_Sweetbriar_2

New Line.l(r:p30udt4378lv-p30ulv14291) Units=km Length=0.0451511 bus1=p30udt4378lv.1.2 bus2=p30ulv14291.1.2 switch=n enabled=y phases=2 Linecode=1P_UG_AL_1/0_Brenau_2

New Line.l(r:p30udt4378lv-p30ulv36675) Units=km Length=0.0162333 bus1=p30udt4378lv.1.2 bus2=p30ulv36675.1.2 switch=n enabled=y phases=2 Linecode=1P_UG_AL_1/0_Brenau_2

New Line.l(r:p30udm20663-p30ulv14289) Units=km Length=0.0156174 bus1=p30udm20663.1.2 bus2=p30ulv14289.1.2 switch=n enabled=y phases=2 Linecode=1P_UG_AL_1/0_Brenau_2

New Line.l(r:p30udm20669-p30ulv36700) Units=km Length=0.0105469 bus1=p30udm20669.1.2 bus2=p30ulv36700.1.2 switch=n enabled=y phases=2 Linecode=1P_UG_AL_1/0_Brenau_2

New Line.l(r:p30udm20662-p30ulv14287) Units=km Length=0.0157284 bus1=p30udm20662.1.2 bus2=p30ulv14287.1.2 switch=n enabled=y phases=2 Linecode=1P_UG_AL_1/0_Brenau_2

New Line.l(r:p30udm20662-p30udm20669) Units=km Length=0.00977577 bus1=p30udm20669.1.2 bus2=p30udm20662.1.2 switch=n enabled=y phases=2 Linecode=1P_UG_AL_1/0_Brenau_2

New Line.l(r:p30udm20663-p30udm20669) Units=km Length=0.00977577 bus1=p30udm20663.1.2 bus2=p30udm20669.1.2 switch=n enabled=y phases=2 Linecode=1P_UG_AL_2/0_Converse_2

New Line.l(r:p30udm20663-p30udt4378lv) Units=km Length=0.00977577 bus1=p30udt4378lv.1.2 bus2=p30udm20663.1.2 switch=n enabled=y phases=2 Linecode=1P_UG_AL_4/0_Sweetbriar_2

New Line.l(r:p30udm20665-p30ulv36664) Units=km Length=0.0242583 bus1=p30udm20665.1.2 bus2=p30ulv36664.1.2 switch=n enabled=y phases=2 Linecode=1P_UG_AL_1/0_Brenau_2

New Line.l(r:p30udm20665-p30ulv36690) Units=km Length=0.0119673 bus1=p30udm20665.1.2 bus2=p30ulv36690.1.2 switch=n enabled=y phases=2 Linecode=1P_UG_AL_4/0_Sweetbriar_2

New Line.l(r:p30udm20667-p30ulv36679) Units=km Length=0.0141971 bus1=p30udm20667.1.2 bus2=p30ulv36679.1.2 switch=n enabled=y phases=2 Linecode=1P_UG_AL_1/0_Brenau_2

New Line.l(r:p30udm20665-p30udm20667) Units=km Length=0.00977577 bus1=p30udm20665.1.2 bus2=p30udm20667.1.2 switch=n enabled=y phases=2 Linecode=1P_UG_AL_1/0_Brenau_2

New Line.l(r:p30udm20665-p30udt4378lv) Units=km Length=0.00977577 bus1=p30udt4378lv.1.2 bus2=p30udm20665.1.2 switch=n enabled=y phases=2 Linecode=1P_UG_AL_4/0_Sweetbriar_2

New Line.l(r:p30udm20670-p30ulv14290) Units=km Length=0.0473279 bus1=p30udm20670.1.2 bus2=p30ulv14290.1.2 switch=n enabled=y phases=2 Linecode=1P_UG_AL_1/0_Brenau_2

New Line.l(r:p30udm20670-p30ulv36667) Units=km Length=0.0169544 bus1=p30udm20670.1.2 bus2=p30ulv36667.1.2 switch=n enabled=y phases=2 Linecode=1P_UG_AL_1/0_Brenau_2

New Line.l(r:p30udm20670-p30ulv36687) Units=km Length=0.0168645 bus1=p30udm20670.1.2 bus2=p30ulv36687.1.2 switch=n enabled=y phases=2 Linecode=1P_UG_AL_1/0_Brenau_2

New Line.l(r:p30udm20671-p30ulv36659) Units=km Length=0.0162941 bus1=p30udm20671.1.2 bus2=p30ulv36659.1.2 switch=n enabled=y phases=2 Linecode=1P_UG_AL_1/0_Brenau_2

New Line.l(r:p30udm20670-p30udm20671) Units=km Length=0.00998484 bus1=p30udm20670.1.2 bus2=p30udm20671.1.2 switch=n enabled=y phases=2 Linecode=1P_UG_AL_1/0_Brenau_2

New Line.l(r:p30udm20670-p30udt4379lv) Units=km Length=0.00999338 bus1=p30udt4379lv.1.2 bus2=p30udm20670.1.2 switch=n enabled=y phases=2 Linecode=1P_UG_AL_1/0_Brenau_2

New Line.l(r:p30udm20673-p30ulv36676) Units=km Length=0.0160083 bus1=p30udm20673.1.2 bus2=p30ulv36676.1.2 switch=n enabled=y phases=2 Linecode=1P_UG_AL_1/0_Brenau_2

New Line.l(r:p30udm20675-p30ulv36692) Units=km Length=0.0129147 bus1=p30udm20675.1.2 bus2=p30ulv36692.1.2 switch=n enabled=y phases=2 Linecode=1P_UG_AL_1/0_Brenau_2

New Line.l(r:p30udm20673-p30udm20675) Units=km Length=0.0199782 bus1=p30udm20673.1.2 bus2=p30udm20675.1.2 switch=n enabled=y phases=2 Linecode=1P_UG_AL_1/0_Brenau_2

New Line.l(r:p30udm20673-p30udt4379lv) Units=km Length=0.00999338 bus1=p30udt4379lv.1.2 bus2=p30udm20673.1.2 switch=n enabled=y phases=2 Linecode=1P_UG_AL_4/0_Sweetbriar_2

New Line.l(r:p30udt4380lv-p30ulv14295) Units=km Length=0.0143837 bus1=p30udt4380lv.1.2 bus2=p30ulv14295.1.2 switch=n enabled=y phases=2 Linecode=1P_UG_AL_1/0_Brenau_2

New Line.l(r:p30udt4380lv-p30ulv36715) Units=km Length=0.00751208 bus1=p30udt4380lv.1.2 bus2=p30ulv36715.1.2 switch=n enabled=y phases=2 Linecode=1P_UG_AL_1/0_Brenau_2

New Line.l(r:p30udm20677-p30ulv36702) Units=km Length=0.0148981 bus1=p30udm20677.1.2 bus2=p30ulv36702.1.2 switch=n enabled=y phases=2 Linecode=1P_UG_AL_1/0_Brenau_2

New Line.l(r:p30udm20677-p30udt4380lv) Units=km Length=0.009276040000000001 bus1=p30udt4380lv.1.2 bus2=p30udm20677.1.2 switch=n enabled=y phases=2 Linecode=1P_UG_AL_1/0_Brenau_2

...