p30uhs8_1247--p30udt9870/Loads.dss
New Load.load_p30ulv7053 conn=wye bus1=p30ulv7053.1.2.3 kV=0.48 Vminpu=0.8 Vmaxpu=1.2 model=1 kW=46.809826734736525 kvar=2.741771646639567 Phases=3 !yearly=com_kw_35600_pu

New Load.load_p30ulv7054 conn=wye bus1=p30ulv7054.1.2.3 kV=0.48 Vminpu=0.8 Vmaxpu=1.2 model=1 kW=27.418395924030982 kvar=6.4041987508596705 Phases=3 !yearly=com_kw_17236_pu

New Load.load_p30ulv7055_1 conn=wye bus1=p30ulv7055.1 kV=0.12 Vminpu=0.8 Vmaxpu=1.2 model=1 kW=8.62405367925426 kvar=2.9935415807198082 Phases=1 !yearly=res_kw_7392_pu

New Load.load_p30ulv7055_2 conn=wye bus1=p30ulv7055.2 kV=0.12 Vminpu=0.8 Vmaxpu=1.2 model=1 kW=8.62405367925426 kvar=2.9935415807198082 Phases=1 !yearly=res_kw_7392_pu

New Load.load_p30ulv7056 conn=wye bus1=p30ulv7056.1.2.3 kV=0.48 Vminpu=0.8 Vmaxpu=1.2 model=1 kW=175.3822051483021 kvar=72.16401938291173 Phases=3 !yearly=res_kw_3910_pu

New Load.load_p30ulv7057_1 conn=wye bus1=p30ulv7057.1 kV=0.12 Vminpu=0.8 Vmaxpu=1.2 model=1 kW=1.5088096974569087 kvar=0.1985914945099675 Phases=1 !yearly=res_kw_5109_pu

New Load.load_p30ulv7057_2 conn=wye bus1=p30ulv7057.2 kV=0.12 Vminpu=0.8 Vmaxpu=1.2 model=1 kW=1.5088096974569087 kvar=0.1985914945099675 Phases=1 !yearly=res_kw_5109_pu

New Load.load_p30ulv7061 conn=wye bus1=p30ulv7061.1.2.3 kV=0.48 Vminpu=0.8 Vmaxpu=1.2 model=1 kW=47.71617360365517 kvar=12.617785654091026 Phases=3 !yearly=com_kw_34120_pu

New Load.load_p30ulv7064 conn=wye bus1=p30ulv7064.1.2.3 kV=0.48 Vminpu=0.8 Vmaxpu=1.2 model=1 kW=72.8434802224912 kvar=12.15406035671413 Phases=3 !yearly=res_kw_8163_pu

New Load.load_p30ulv7065_1 conn=wye bus1=p30ulv7065.1 kV=0.12 Vminpu=0.8 Vmaxpu=1.2 model=1 kW=2.606959916668558 kvar=0.5550307077474157 Phases=1 !yearly=com_kw_33605_pu

New Load.load_p30ulv7065_2 conn=wye bus1=p30ulv7065.2 kV=0.12 Vminpu=0.8 Vmaxpu=1.2 model=1 kW=2.606959916668558 kvar=0.5550307077474157 Phases=1 !yearly=com_kw_33605_pu

New Load.load_p30ulv7066_1 conn=wye bus1=p30ulv7066.1 kV=0.12 Vminpu=0.8 Vmaxpu=1.2 model=1 kW=3.516258392707745 kvar=0.82351986644914 Phases=1 !yearly=res_kw_8052_pu

New Load.load_p30ulv7066_2 conn=wye bus1=p30ulv7066.2 kV=0.12 Vminpu=0.8 Vmaxpu=1.2 model=1 kW=3.516258392707745 kvar=0.82351986644914 Phases=1 !yearly=res_kw_8052_pu

New Load.load_p30ulv7105_1 conn=wye bus1=p30ulv7105.1 kV=0.12 Vminpu=0.8 Vmaxpu=1.2 model=1 kW=2.2874196130666418 kvar=0.9219654181970236 Phases=1 !yearly=res_kw_15185_pu

New Load.load_p30ulv7105_2 conn=wye bus1=p30ulv7105.2 kV=0.12 Vminpu=0.8 Vmaxpu=1.2 model=1 kW=2.2874196130666418 kvar=0.9219654181970236 Phases=1 !yearly=res_kw_15185_pu

New Load.load_p30ulv7106_1 conn=wye bus1=p30ulv7106.1 kV=0.12 Vminpu=0.8 Vmaxpu=1.2 model=1 kW=5.922263051512463 kvar=1.2402658775286277 Phases=1 !yearly=res_kw_6957_pu

New Load.load_p30ulv7106_2 conn=wye bus1=p30ulv7106.2 kV=0.12 Vminpu=0.8 Vmaxpu=1.2 model=1 kW=5.922263051512463 kvar=1.2402658775286277 Phases=1 !yearly=res_kw_6957_pu

New Load.load_p30ulv7107_1 conn=wye bus1=p30ulv7106.1 kV=0.12 Vminpu=0.8 Vmaxpu=1.2 model=1 kW=6.052620586065284 kvar=0.6154724266148378 Phases=1 !yearly=res_kw_7000_pu

New Load.load_p30ulv7107_2 conn=wye bus1=p30ulv7106.2 kV=0.12 Vminpu=0.8 Vmaxpu=1.2 model=1 kW=6.052620586065284 kvar=0.6154724266148378 Phases=1 !yearly=res_kw_7000_pu

New Load.load_p30ulv7108_1 conn=wye bus1=p30ulv7108.1 kV=0.12 Vminpu=0.8 Vmaxpu=1.2 model=1 kW=3.2928799042481236 kvar=2.2449914440930825 Phases=1 !yearly=res_kw_14965_pu

New Load.load_p30ulv7108_2 conn=wye bus1=p30ulv7108.2 kV=0.12 Vminpu=0.8 Vmaxpu=1.2 model=1 kW=3.2928799042481236 kvar=2.2449914440930825 Phases=1 !yearly=res_kw_14965_pu

New Load.load_p30ulv7109_1 conn=wye bus1=p30ulv7109.1 kV=0.12 Vminpu=0.8 Vmaxpu=1.2 model=1 kW=2.514014660495149 kvar=0.15947505825586705 Phases=1 !yearly=res_kw_15164_pu

New Load.load_p30ulv7109_2 conn=wye bus1=p30ulv7109.2 kV=0.12 Vminpu=0.8 Vmaxpu=1.2 model=1 kW=2.514014660495149 kvar=0.15947505825586705 Phases=1 !yearly=res_kw_15164_pu

New Load.load_p30ulv7110_1 conn=wye bus1=p30ulv7110.1 kV=0.12 Vminpu=0.8 Vmaxpu=1.2 model=1 kW=8.838538586601526 kvar=1.4567046008719367 Phases=1 !yearly=res_kw_9624_pu

New Load.load_p30ulv7110_2 conn=wye bus1=p30ulv7110.2 kV=0.12 Vminpu=0.8 Vmaxpu=1.2 model=1 kW=8.838538586601526 kvar=1.4567046008719367 Phases=1 !yearly=res_kw_9624_pu

New Load.load_p30ulv7111_1 conn=wye bus1=p30ulv7110.1 kV=0.12 Vminpu=0.8 Vmaxpu=1.2 model=1 kW=2.0300314981978542 kvar=0.9225136918449811 Phases=1 !yearly=res_kw_5872_pu

New Load.load_p30ulv7111_2 conn=wye bus1=p30ulv7110.2 kV=0.12 Vminpu=0.8 Vmaxpu=1.2 model=1 kW=2.0300314981978542 kvar=0.9225136918449811 Phases=1 !yearly=res_kw_5872_pu

New Load.load_p30ulv7112_1 conn=wye bus1=p30ulv7114.1 kV=0.12 Vminpu=0.8 Vmaxpu=1.2 model=1 kW=4.88794053821934 kvar=0.23527783199384397 Phases=1 !yearly=res_kw_13811_pu

New Load.load_p30ulv7112_2 conn=wye bus1=p30ulv7114.2 kV=0.12 Vminpu=0.8 Vmaxpu=1.2 model=1 kW=4.88794053821934 kvar=0.23527783199384397 Phases=1 !yearly=res_kw_13811_pu

...