p30uhs8_1247--p30udt9870/feeder_p30udt9870-p30uhs8_1247x_Power_elem_kVA.txt

CIRCUIT ELEMENT POWER FLOW

(Power Flow into element from indicated Bus)

Power Delivery Elements

  Bus                      Phase     kW     +j   kvar         kVA         PF

ELEMENT = "Vsource.SOURCE"
P30UDT9870-P30UHS8_1247X       1     -5547.1 +j  -1242.9     5684.6       0.9758
P30UDT9870-P30UHS8_1247X       2     -6277.5 +j  -1483.5     6450.4       0.9732
P30UDT9870-P30UHS8_1247X       3     -5630.6 +j  -1267.0     5771.4       0.9756
   TERMINAL TOTAL ..................-17455.2 +j  -3993.4    17906.1       0.9748
P30UDT9870-P30UHS8_1247X       0         0.0 +j      0.0        0.0       1.0000
P30UDT9870-P30UHS8_1247X       0         0.0 +j      0.0        0.0       1.0000
P30UDT9870-P30UHS8_1247X       0         0.0 +j      0.0        0.0       1.0000
   TERMINAL TOTAL ..................     0.0 +j      0.0        0.0       1.0000

ELEMENT = "Line.L(R:P30UDM6389-P30ULV7055)"
P30UDM6389                     1         8.6 +j      3.0        9.1       0.9447
P30UDM6389                     2         8.6 +j      3.0        9.1       0.9447
   TERMINAL TOTAL ..................    17.3 +j      6.0       18.3       0.9447
P30ULV7055                     1        -8.6 +j     -3.0        9.1       0.9447
P30ULV7055                     2        -8.6 +j     -3.0        9.1       0.9447
   TERMINAL TOTAL ..................   -17.2 +j     -6.0       18.3       0.9447

ELEMENT = "Line.L(R:P30UDM6389-P30UDT1554LV)"
P30UDT1554LV                   1         8.7 +j      3.0        9.2       0.9447
P30UDT1554LV                   2         8.7 +j      3.0        9.2       0.9447
   TERMINAL TOTAL ..................    17.4 +j      6.0       18.4       0.9447
P30UDM6389                     1        -8.6 +j     -3.0        9.1       0.9447
P30UDM6389                     2        -8.6 +j     -3.0        9.1       0.9447
   TERMINAL TOTAL ..................   -17.3 +j     -6.0       18.3       0.9447

ELEMENT = "Line.L(R:P30UDM6390-P30ULV30721)"
P30UDM6390                     1         3.2 +j      0.6        3.2       0.9803
P30UDM6390                     2         3.2 +j      0.6        3.2       0.9803
   TERMINAL TOTAL ..................     6.4 +j      1.3        6.5       0.9803
P30ULV30721                    1        -3.2 +j     -0.6        3.2       0.9803
P30ULV30721                    2        -3.2 +j     -0.6        3.2       0.9803
   TERMINAL TOTAL ..................    -6.4 +j     -1.3        6.5       0.9803

ELEMENT = "Line.L(R:P30UDM6390-P30UDT1554LV)"
P30UDT1554LV                   1         3.2 +j      0.6        3.3       0.9803
P30UDT1554LV                   2         3.2 +j      0.6        3.3       0.9803
   TERMINAL TOTAL ..................     6.4 +j      1.3        6.5       0.9803
P30UDM6390                     1        -3.2 +j     -0.6        3.2       0.9803
P30UDM6390                     2        -3.2 +j     -0.6        3.2       0.9803
   TERMINAL TOTAL ..................    -6.4 +j     -1.3        6.5       0.9803

ELEMENT = "Line.L(R:P30UDT1556LV-P30ULV7057)"
P30UDT1556LV                   1         1.5 +j      0.2        1.5       0.9914
P30UDT1556LV                   2         1.5 +j      0.2        1.5       0.9914
   TERMINAL TOTAL ..................     3.0 +j      0.4        3.0       0.9914
P30ULV7057                     1        -1.5 +j     -0.2        1.5       0.9914
P30ULV7057                     2        -1.5 +j     -0.2        1.5       0.9914
   TERMINAL TOTAL ..................    -3.0 +j     -0.4        3.0       0.9914

ELEMENT = "Line.L(R:P30UDT1556LV-P30ULV40392)"
P30UDT1556LV                   1         2.9 +j      1.4        3.2       0.9066
P30UDT1556LV                   2         2.9 +j      1.4        3.2       0.9066
   TERMINAL TOTAL ..................     5.9 +j      2.7        6.5       0.9066
P30ULV40392                    1        -2.9 +j     -1.4        3.2       0.9065
P30ULV40392                    2        -2.9 +j     -1.4        3.2       0.9065
   TERMINAL TOTAL ..................    -5.9 +j     -2.7        6.5       0.9065

ELEMENT = "Line.L(R:P30UDM6393-P30ULV40391)"
P30UDM6393                     1         3.9 +j      1.7        4.2       0.9161
P30UDM6393                     2         3.9 +j      1.7        4.2       0.9161
   TERMINAL TOTAL ..................     7.8 +j      3.4        8.5       0.9161
P30ULV40391                    1        -3.9 +j     -1.7        4.2       0.9160
P30ULV40391                    2        -3.9 +j     -1.7        4.2       0.9160
   TERMINAL TOTAL ..................    -7.8 +j     -3.4        8.5       0.9160

ELEMENT = "Line.L(R:P30UDM6393-P30UDT1556LV)"
P30UDT1556LV                   1         3.9 +j      1.7        4.2       0.9162
P30UDT1556LV                   2         3.9 +j      1.7        4.2       0.9162
   TERMINAL TOTAL ..................     7.8 +j      3.4        8.5       0.9162
P30UDM6393                     1        -3.9 +j     -1.7        4.2       0.9161
P30UDM6393                     2        -3.9 +j     -1.7        4.2       0.9161
   TERMINAL TOTAL ..................    -7.8 +j     -3.4        8.5       0.9161

ELEMENT = "Line.L(R:P30UDT1563LV-P30ULV7065)"
P30UDT1563LV                   1         2.6 +j      0.6        2.7       0.9781
P30UDT1563LV                   2         2.6 +j      0.6        2.7       0.9781
   TERMINAL TOTAL ..................     5.2 +j      1.1        5.3       0.9781
P30ULV7065                     1        -2.6 +j     -0.6        2.7       0.9781
P30ULV7065                     2        -2.6 +j     -0.6        2.7       0.9781
   TERMINAL TOTAL ..................    -5.2 +j     -1.1        5.3       0.9781

ELEMENT = "Line.L(R:P30UDM6418-P30ULV7130)"
P30UDM6418                     1         4.0 +j      1.6        4.3       0.9270
P30UDM6418                     2         4.0 +j      1.6        4.3       0.9270
   TERMINAL TOTAL ..................     7.9 +j      3.2        8.5       0.9270
P30ULV7130                     1        -4.0 +j     -1.6        4.3       0.9270
P30ULV7130                     2        -4.0 +j     -1.6        4.3       0.9270
   TERMINAL TOTAL ..................    -7.9 +j     -3.2        8.5       0.9270

ELEMENT = "Line.L(R:P30UDM6419-P30ULV7131)"
P30UDM6419                     1        13.7 +j      2.8       14.0       0.9799
P30UDM6419                     2        13.7 +j      2.8       14.0       0.9799
   TERMINAL TOTAL ..................    27.4 +j      5.6       28.0       0.9799
P30ULV7131                     1       -13.7 +j     -2.8       14.0       0.9799
P30ULV7131                     2       -13.7 +j     -2.8       14.0       0.9799
   TERMINAL TOTAL ..................   -27.4 +j     -5.6       27.9       0.9799

ELEMENT = "Line.L(R:P30UDM6420-P30ULV7133)"
P30UDM6420                     1         8.4 +j      2.2        8.7       0.9673
P30UDM6420                     2         8.4 +j      2.2        8.7       0.9673
   TERMINAL TOTAL ..................    16.7 +j      4.4       17.3       0.9673
P30ULV7133                     1        -8.4 +j     -2.2        8.6       0.9673
P30ULV7133                     2        -8.4 +j     -2.2        8.6       0.9673
   TERMINAL TOTAL ..................   -16.7 +j     -4.4       17.3       0.9673

ELEMENT = "Line.L(R:P30UDM6419-P30UDM6420)"
P30UDM6419                     1         8.4 +j      2.2        8.7       0.9674
P30UDM6419                     2         8.4 +j      2.2        8.7       0.9674
   TERMINAL TOTAL ..................    16.8 +j      4.4       17.4       0.9674
P30UDM6420                     1        -8.4 +j     -2.2        8.7       0.9673
P30UDM6420                     2        -8.4 +j     -2.2        8.7       0.9673
   TERMINAL TOTAL ..................   -16.7 +j     -4.4       17.3       0.9673

ELEMENT = "Line.L(R:P30UDM6418-P30UDM6419)"
P30UDM6418                     1        22.3 +j      5.0       22.9       0.9754
P30UDM6418                     2        22.3 +j      5.0       22.9       0.9754
   TERMINAL TOTAL ..................    44.7 +j     10.1       45.8       0.9754
P30UDM6419                     1       -22.1 +j     -5.0       22.7       0.9754
P30UDM6419                     2       -22.1 +j     -5.0       22.7       0.9754
   TERMINAL TOTAL ..................   -44.2 +j    -10.0       45.3       0.9754

ELEMENT = "Line.L(R:P30UDM6418-P30UDT1563LV)"
P30UDT1563LV                   1        26.9 +j      6.8       27.8       0.9692
P30UDT1563LV                   2        26.9 +j      6.8       27.7       0.9691
   TERMINAL TOTAL ..................    53.8 +j     13.7       55.5       0.9691
P30UDM6418                     1       -26.3 +j     -6.6       27.1       0.9695
P30UDM6418                     2       -26.3 +j     -6.6       27.1       0.9695
   TERMINAL TOTAL ..................   -52.6 +j    -13.3       54.2       0.9695

ELEMENT = "Line.L(R:P30UDM6423-P30ULV40342)"
P30UDM6423                     1         6.1 +j      1.6        6.3       0.9655
P30UDM6423                     2         6.1 +j      1.6        6.3       0.9655
   TERMINAL TOTAL ..................    12.2 +j      3.3       12.6       0.9655
P30ULV40342                    1        -6.1 +j     -1.6        6.3       0.9655
P30ULV40342                    2        -6.1 +j     -1.6        6.3       0.9655
   TERMINAL TOTAL ..................   -12.2 +j     -3.3       12.6       0.9655

ELEMENT = "Line.L(R:P30UDM6422-P30ULV40341)"
P30UDM6422                     1         1.6 +j      0.6        1.7       0.9358
P30UDM6422                     2         1.6 +j      0.6        1.7       0.9358
   TERMINAL TOTAL ..................     3.1 +j      1.2        3.3       0.9358
P30ULV40341                    1        -1.6 +j     -0.6        1.7       0.9357
P30ULV40341                    2        -1.6 +j     -0.6        1.7       0.9357
   TERMINAL TOTAL ..................    -3.1 +j     -1.2        3.3       0.9357

ELEMENT = "Line.L(R:P30UDM6422-P30UDM6423)"
P30UDM6423                     1         1.6 +j      0.6        1.7       0.9358
P30UDM6423                     2         1.6 +j      0.6        1.7       0.9358
   TERMINAL TOTAL ..................     3.1 +j      1.2        3.3       0.9358
P30UDM6422                     1        -1.6 +j     -0.6        1.7       0.9358
P30UDM6422                     2        -1.6 +j     -0.6        1.7       0.9358
   TERMINAL TOTAL ..................    -3.1 +j     -1.2        3.3       0.9358

ELEMENT = "Line.L(R:P30UDM6423-P30UDT1564LV)"
P30UDT1564LV                   1         7.7 +j      2.2        8.0       0.9601
P30UDT1564LV                   2         7.7 +j      2.2        8.0       0.9601
   TERMINAL TOTAL ..................    15.4 +j      4.5       16.0       0.9601
P30UDM6423                     1        -7.7 +j     -2.2        8.0       0.9601
P30UDM6423                     2        -7.7 +j     -2.2        8.0       0.9601
   TERMINAL TOTAL ..................   -15.3 +j     -4.5       16.0       0.9601

ELEMENT = "Line.L(R:P30UDM6424-P30ULV40367)"
P30UDM6424                     1         1.6 +j      0.6        1.7       0.9310
P30UDM6424                     2         1.6 +j      0.6        1.7       0.9310
   TERMINAL TOTAL ..................     3.1 +j      1.2        3.3       0.9310
P30ULV40367                    1        -1.6 +j     -0.6        1.7       0.9310
P30ULV40367                    2        -1.6 +j     -0.6        1.7       0.9310
   TERMINAL TOTAL ..................    -3.1 +j     -1.2        3.3       0.9310

ELEMENT = "Line.L(R:P30UDM6421-P30ULV7066)"
P30UDM6421                     1         3.5 +j      0.8        3.6       0.9737
P30UDM6421                     2         3.5 +j      0.8        3.6       0.9737
   TERMINAL TOTAL ..................     7.0 +j      1.6        7.2       0.9737
P30ULV7066                     1        -3.5 +j     -0.8        3.6       0.9737
P30ULV7066                     2        -3.5 +j     -0.8        3.6       0.9737
   TERMINAL TOTAL ..................    -7.0 +j     -1.6        7.2       0.9737

ELEMENT = "Line.L(R:P30UDM6421-P30UDM6424)"
P30UDM6424                     1         3.5 +j      0.8        3.6       0.9737
P30UDM6424                     2         3.5 +j      0.8        3.6       0.9737
   TERMINAL TOTAL ..................     7.1 +j      1.7        7.2       0.9737
P30UDM6421                     1        -3.5 +j     -0.8        3.6       0.9737
P30UDM6421                     2        -3.5 +j     -0.8        3.6       0.9737
   TERMINAL TOTAL ..................    -7.0 +j     -1.6        7.2       0.9737

ELEMENT = "Line.L(R:P30UDM6424-P30UDT1564LV)"
P30UDT1564LV                   1         5.1 +j      1.4        5.3       0.9624
P30UDT1564LV                   2         5.1 +j      1.4        5.3       0.9624
   TERMINAL TOTAL ..................    10.2 +j      2.9       10.6       0.9624
P30UDM6424                     1        -5.1 +j     -1.4        5.3       0.9623
P30UDM6424                     2        -5.1 +j     -1.4        5.3       0.9623
   TERMINAL TOTAL ..................   -10.2 +j     -2.9       10.6       0.9623

ELEMENT = "Line.L(R:P30UDT1578LV-P30ULV7106)"
P30UDT1578LV                   1        12.0 +j      1.9       12.1       0.9882
P30UDT1578LV                   2        12.0 +j      1.9       12.1       0.9882
   TERMINAL TOTAL ..................    24.0 +j      3.7       24.3       0.9882
P30ULV7106                     1       -12.0 +j     -1.9       12.1       0.9882
P30ULV7106                     2       -12.0 +j     -1.9       12.1       0.9882
   TERMINAL TOTAL ..................   -23.9 +j     -3.7       24.2       0.9882

ELEMENT = "Line.L(R:P30UDT1578LV-P30ULV7135)"
P30UDT1578LV                   1         6.3 +j      1.0        6.4       0.9873
P30UDT1578LV                   2         6.3 +j      1.0        6.4       0.9873
   TERMINAL TOTAL ..................    12.6 +j      2.0       12.8       0.9873
P30ULV7135                     1        -6.3 +j     -1.0        6.4       0.9872
P30ULV7135                     2        -6.3 +j     -1.0        6.4       0.9872
   TERMINAL TOTAL ..................   -12.6 +j     -2.0       12.8       0.9872

ELEMENT = "Line.L(R:P30UDT1578LV-P30ULV7137)"
P30UDT1578LV                   1         8.1 +j      0.1        8.1       0.9999
P30UDT1578LV                   2         8.1 +j      0.1        8.1       0.9999
   TERMINAL TOTAL ..................    16.3 +j      0.2       16.3       0.9999
P30ULV7137                     1        -8.1 +j     -0.1        8.1       0.9999
P30ULV7137                     2        -8.1 +j     -0.1        8.1       0.9999
   TERMINAL TOTAL ..................   -16.2 +j     -0.2       16.2       0.9999

ELEMENT = "Line.L(R:P30UDM6518-P30ULV7105)"
P30UDM6518                     1         2.3 +j      0.9        2.5       0.9275
P30UDM6518                     2         2.3 +j      0.9        2.5       0.9275
   TERMINAL TOTAL ..................     4.6 +j      1.8        4.9       0.9275
P30ULV7105                     1        -2.3 +j     -0.9        2.5       0.9275
P30ULV7105                     2        -2.3 +j     -0.9        2.5       0.9275
   TERMINAL TOTAL ..................    -4.6 +j     -1.8        4.9       0.9275

ELEMENT = "Line.L(R:P30UDM6518-P30UDT1578LV)"
P30UDT1578LV                   1         2.3 +j      0.9        2.5       0.9276
P30UDT1578LV                   2         2.3 +j      0.9        2.5       0.9276
   TERMINAL TOTAL ..................     4.6 +j      1.8        4.9       0.9276
P30UDM6518                     1        -2.3 +j     -0.9        2.5       0.9275
P30UDM6518                     2        -2.3 +j     -0.9        2.5       0.9275
   TERMINAL TOTAL ..................    -4.6 +j     -1.8        4.9       0.9275

ELEMENT = "Line.L(R:P30UDM6520-P30ULV7108)"
P30UDM6520                     1         3.3 +j      2.2        4.0       0.8264
P30UDM6520                     2         3.3 +j      2.2        4.0       0.8264
   TERMINAL TOTAL ..................     6.6 +j      4.5        8.0       0.8264
P30ULV7108                     1        -3.3 +j     -2.2        4.0       0.8262
P30ULV7108                     2        -3.3 +j     -2.2        4.0       0.8262
   TERMINAL TOTAL ..................    -6.6 +j     -4.5        8.0       0.8262

ELEMENT = "Line.L(R:P30UDM6520-P30ULV7109)"
P30UDM6520                     1         2.5 +j      0.2        2.5       0.9980
P30UDM6520                     2         2.5 +j      0.2        2.5       0.9980
   TERMINAL TOTAL ..................     5.0 +j      0.3        5.0       0.9980
P30ULV7109                     1        -2.5 +j     -0.2        2.5       0.9980
P30ULV7109                     2        -2.5 +j     -0.2        2.5       0.9980
   TERMINAL TOTAL ..................    -5.0 +j     -0.3        5.0       0.9980

ELEMENT = "Line.L(R:P30UDM6520-P30ULV7138)"
P30UDM6520                     1         6.3 +j      0.4        6.3       0.9981
P30UDM6520                     2         6.3 +j      0.4        6.3       0.9981
   TERMINAL TOTAL ..................    12.6 +j      0.8       12.6       0.9981
P30ULV7138                     1        -6.3 +j     -0.4        6.3       0.9981
P30ULV7138                     2        -6.3 +j     -0.4        6.3       0.9981
   TERMINAL TOTAL ..................   -12.6 +j     -0.8       12.6       0.9981

ELEMENT = "Line.L(R:P30UDM6520-P30UDT1578LV)"
P30UDT1578LV                   1        12.2 +j      2.8       12.5       0.9744
P30UDT1578LV                   2        12.2 +j      2.8       12.5       0.9744
   TERMINAL TOTAL ..................    24.4 +j      5.6       25.0       0.9744
P30UDM6520                     1       -12.1 +j     -2.8       12.4       0.9744
P30UDM6520                     2       -12.1 +j     -2.8       12.4       0.9744
   TERMINAL TOTAL ..................   -24.2 +j     -5.6       24.9       0.9744

ELEMENT = "Line.L(R:P30UDT1579LV-P30ULV7110)"
P30UDT1579LV                   1        10.9 +j      2.4       11.2       0.9770
P30UDT1579LV                   2        10.9 +j      2.4       11.2       0.9770
   TERMINAL TOTAL ..................    21.8 +j      4.8       22.3       0.9770
P30ULV7110                     1       -10.9 +j     -2.4       11.1       0.9769
P30ULV7110                     2       -10.9 +j     -2.4       11.1       0.9769
   TERMINAL TOTAL ..................   -21.7 +j     -4.8       22.3       0.9769

ELEMENT = "Line.L(R:P30UDT1579LV-P30ULV7116)"
P30UDT1579LV                   1         5.3 +j      1.2        5.4       0.9767
P30UDT1579LV                   2         5.3 +j      1.2        5.4       0.9767
   TERMINAL TOTAL ..................    10.6 +j      2.3       10.8       0.9767
P30ULV7116                     1        -5.3 +j     -1.2        5.4       0.9767
P30ULV7116                     2        -5.3 +j     -1.2        5.4       0.9767
   TERMINAL TOTAL ..................   -10.5 +j     -2.3       10.8       0.9767

ELEMENT = "Line.L(R:P30UDM6527-P30ULV7120)"
P30UDM6527                     1        10.3 +j      1.7       10.4       0.9863
P30UDM6527                     2        10.3 +j      1.7       10.4       0.9863
   TERMINAL TOTAL ..................    20.6 +j      3.4       20.9       0.9863
P30ULV7120                     1       -10.3 +j     -1.7       10.4       0.9864
P30ULV7120                     2       -10.3 +j     -1.7       10.4       0.9864
   TERMINAL TOTAL ..................   -20.5 +j     -3.4       20.8       0.9864

ELEMENT = "Line.L(R:P30UDM6527-P30UDT1579LV)"
P30UDT1579LV                   1        10.3 +j      1.7       10.5       0.9863
P30UDT1579LV                   2        10.3 +j      1.7       10.5       0.9863
   TERMINAL TOTAL ..................    20.7 +j      3.5       20.9       0.9863
P30UDM6527                     1       -10.3 +j     -1.7       10.4       0.9863
P30UDM6527                     2       -10.3 +j     -1.7       10.4       0.9863
   TERMINAL TOTAL ..................   -20.6 +j     -3.4       20.9       0.9863

ELEMENT = "Line.L(R:P30UDM6528-P30ULV7125)"
P30UDM6528                     1        11.0 +j      2.0       11.2       0.9836
P30UDM6528                     2        11.0 +j      2.0       11.2       0.9836
   TERMINAL TOTAL ..................    22.0 +j      4.0       22.3       0.9836
P30ULV7125                     1       -11.0 +j     -2.0       11.1       0.9836
P30ULV7125                     2       -11.0 +j     -2.0       11.1       0.9836
   TERMINAL TOTAL ..................   -21.9 +j     -4.0       22.3       0.9836

ELEMENT = "Line.L(R:P30UDM6528-P30UDT1579LV)"
P30UDT1579LV                   1        11.0 +j      2.0       11.2       0.9836
P30UDT1579LV                   2        11.0 +j      2.0       11.2       0.9836
   TERMINAL TOTAL ..................    22.1 +j      4.1       22.4       0.9836
P30UDM6528                     1       -11.0 +j     -2.0       11.2       0.9836
P30UDM6528                     2       -11.0 +j     -2.0       11.2       0.9836
   TERMINAL TOTAL ..................   -22.0 +j     -4.0       22.3       0.9836

ELEMENT = "Line.L(R:P30UDT1580LV-P30ULV7115)"
P30UDT1580LV                   1         3.0 +j      1.3        3.3       0.9191
P30UDT1580LV                   2         3.0 +j      1.3        3.3       0.9191
   TERMINAL TOTAL ..................     6.1 +j      2.6        6.6       0.9191
P30ULV7115                     1        -3.0 +j     -1.3        3.3       0.9191
P30ULV7115                     2        -3.0 +j     -1.3        3.3       0.9191
   TERMINAL TOTAL ..................    -6.1 +j     -2.6        6.6       0.9191

ELEMENT = "Line.L(R:P30UDT1580LV-P30ULV7121)"
P30UDT1580LV                   1         5.7 +j      0.3        5.7       0.9988
P30UDT1580LV                   2         5.7 +j      0.3        5.7       0.9988
   TERMINAL TOTAL ..................    11.4 +j      0.6       11.4       0.9988
P30ULV7121                     1        -5.7 +j     -0.3        5.7       0.9988
P30ULV7121                     2        -5.7 +j     -0.3        5.7       0.9988
   TERMINAL TOTAL ..................   -11.4 +j     -0.6       11.4       0.9988

ELEMENT = "Line.L(R:P30UDM6529-P30ULV7114)"
P30UDM6529                     1        12.7 +j      1.7       12.9       0.9910
P30UDM6529                     2        12.7 +j      1.7       12.9       0.9910
   TERMINAL TOTAL ..................    25.5 +j      3.4       25.7       0.9910
P30ULV7114                     1       -12.7 +j     -1.7       12.8       0.9909
P30ULV7114                     2       -12.7 +j     -1.7       12.8       0.9909
   TERMINAL TOTAL ..................   -25.4 +j     -3.4       25.6       0.9909

ELEMENT = "Line.L(R:P30UDM6529-P30UDT1580LV)"
P30UDT1580LV                   1        12.8 +j      1.7       12.9       0.9909
P30UDT1580LV                   2        12.8 +j      1.7       12.9       0.9909
   TERMINAL TOTAL ..................    25.6 +j      3.5       25.9       0.9909
P30UDM6529                     1       -12.7 +j     -1.7       12.9       0.9910
P30UDM6529                     2       -12.7 +j     -1.7       12.9       0.9910
   TERMINAL TOTAL ..................   -25.5 +j     -3.4       25.7       0.9910

ELEMENT = "Line.L(R:P30UDT1581LV-P30ULV7128)"
P30UDT1581LV                   1        11.8 +j      2.7       12.1       0.9757
P30UDT1581LV                   2        11.8 +j      2.7       12.1       0.9757
   TERMINAL TOTAL ..................    23.6 +j      5.3       24.2       0.9757
P30ULV7128                     1       -11.8 +j     -2.6       12.1       0.9757
P30ULV7128                     2       -11.8 +j     -2.6       12.1       0.9757
   TERMINAL TOTAL ..................   -23.6 +j     -5.3       24.2       0.9757

ELEMENT = "Line.L(R:P30UDM6534-P30ULV7129)"
P30UDM6534                     1        10.9 +j      0.2       10.9       0.9999
P30UDM6534                     2        10.9 +j      0.2       10.9       0.9999
   TERMINAL TOTAL ..................    21.8 +j      0.4       21.8       0.9999
P30ULV7129                     1       -10.9 +j     -0.2       10.9       0.9999
P30ULV7129                     2       -10.9 +j     -0.2       10.9       0.9999
   TERMINAL TOTAL ..................   -21.7 +j     -0.4       21.7       0.9999

ELEMENT = "Line.L(R:P30UDM6532-P30ULV7122)"
P30UDM6532                     1        13.6 +j      3.2       14.0       0.9733
P30UDM6532                     2        13.6 +j      3.2       14.0       0.9733
   TERMINAL TOTAL ..................    27.3 +j      6.4       28.0       0.9733
P30ULV7122                     1       -13.6 +j     -3.2       14.0       0.9732
P30ULV7122                     2       -13.6 +j     -3.2       14.0       0.9732
   TERMINAL TOTAL ..................   -27.2 +j     -6.4       28.0       0.9732

ELEMENT = "Line.L(R:P30UDM6532-P30UDM6534)"
P30UDM6534                     1        13.8 +j      3.3       14.2       0.9730
P30UDM6534                     2        13.8 +j      3.3       14.2       0.9730
   TERMINAL TOTAL ..................    27.7 +j      6.6       28.4       0.9730
P30UDM6532                     1       -13.6 +j     -3.2       14.0       0.9733
P30UDM6532                     2       -13.6 +j     -3.2       14.0       0.9733
   TERMINAL TOTAL ..................   -27.3 +j     -6.4       28.0       0.9733

ELEMENT = "Line.L(R:P30UDM6534-P30UDT1581LV)"
P30UDT1581LV                   1        25.1 +j      3.5       25.3       0.9902
P30UDT1581LV                   2        25.1 +j      3.5       25.3       0.9902
   TERMINAL TOTAL ..................    50.1 +j      7.1       50.6       0.9902
P30UDM6534                     1       -24.7 +j     -3.5       25.0       0.9903
P30UDM6534                     2       -24.7 +j     -3.5       25.0       0.9903
   TERMINAL TOTAL ..................   -49.5 +j     -6.9       50.0       0.9903

ELEMENT = "Line.L(R:P30UDM12668-P30ULV10318)"
P30UDM12668                    1        11.5 +j      2.7       11.8       0.9743
P30UDM12668                    2        11.5 +j      2.7       11.8       0.9743
   TERMINAL TOTAL ..................    23.1 +j      5.3       23.7       0.9743
P30ULV10318                    1       -11.5 +j     -2.7       11.8       0.9743
P30ULV10318                    2       -11.5 +j     -2.7       11.8       0.9743
   TERMINAL TOTAL ..................   -23.0 +j     -5.3       23.6       0.9743

ELEMENT = "Line.L(R:P30UDM12668-P30UDT2794LV)"
P30UDT2794LV                   1        11.6 +j      2.7       11.9       0.9742
P30UDT2794LV                   2        11.6 +j      2.7       11.9       0.9742
   TERMINAL TOTAL ..................    23.3 +j      5.4       23.9       0.9742
P30UDM12668                    1       -11.5 +j     -2.7       11.8       0.9743
P30UDM12668                    2       -11.5 +j     -2.7       11.8       0.9743
   TERMINAL TOTAL ..................   -23.1 +j     -5.3       23.7       0.9743

ELEMENT = "Line.L(R:P30UDM12669-P30ULV43309)"
P30UDM12669                    1         3.7 +j      0.3        3.7       0.9974
P30UDM12669                    2         3.7 +j      0.3        3.7       0.9974
   TERMINAL TOTAL ..................     7.4 +j      0.5        7.4       0.9974
P30ULV43309                    1        -3.7 +j     -0.3        3.7       0.9974
P30ULV43309                    2        -3.7 +j     -0.3        3.7       0.9974
   TERMINAL TOTAL ..................    -7.4 +j     -0.5        7.4       0.9974

ELEMENT = "Line.L(R:P30UDM12669-P30UDT2794LV)"
P30UDT2794LV                   1         3.7 +j      0.3        3.7       0.9973
P30UDT2794LV                   2         3.7 +j      0.3        3.7       0.9973
   TERMINAL TOTAL ..................     7.4 +j      0.5        7.4       0.9973
P30UDM12669                    1        -3.7 +j     -0.3        3.7       0.9974
P30UDM12669                    2        -3.7 +j     -0.3        3.7       0.9974
   TERMINAL TOTAL ..................    -7.4 +j     -0.5        7.4       0.9974

ELEMENT = "Line.L(R:P30UDT2795LV-P30ULV10320)"
P30UDT2795LV                   1         8.3 +j      2.0        8.5       0.9733
P30UDT2795LV                   2         8.3 +j      2.0        8.5       0.9733
   TERMINAL TOTAL ..................    16.6 +j      3.9       17.0       0.9733
P30ULV10320                    1        -8.3 +j     -2.0        8.5       0.9733
P30ULV10320                    2        -8.3 +j     -2.0        8.5       0.9733
   TERMINAL TOTAL ..................   -16.6 +j     -3.9       17.0       0.9733

ELEMENT = "Line.L(R:P30UDT2796LV-P30ULV10321)"
P30UDT2796LV                   1         3.8 +j      1.0        3.9       0.9674
P30UDT2796LV                   2         3.8 +j      1.0        3.9       0.9674
   TERMINAL TOTAL ..................     7.6 +j      2.0        7.9       0.9674
P30ULV10321                    1        -3.8 +j     -1.0        3.9       0.9674
P30ULV10321                    2        -3.8 +j     -1.0        3.9       0.9674
   TERMINAL TOTAL ..................    -7.6 +j     -2.0        7.8       0.9674

ELEMENT = "Line.L(R:P30UDM12672-P30ULV10322)"
P30UDM12672                    1         4.3 +j      0.3        4.3       0.9982
P30UDM12672                    2         4.3 +j      0.3        4.3       0.9982
   TERMINAL TOTAL ..................     8.6 +j      0.5        8.6       0.9982
P30ULV10322                    1        -4.3 +j     -0.3        4.3       0.9982
P30ULV10322                    2        -4.3 +j     -0.3        4.3       0.9982
   TERMINAL TOTAL ..................    -8.6 +j     -0.5        8.6       0.9982

ELEMENT = "Line.L(R:P30UDM12672-P30UDT2796LV)"
P30UDT2796LV                   1         4.3 +j      0.3        4.3       0.9982
P30UDT2796LV                   2         4.3 +j      0.3        4.3       0.9982
   TERMINAL TOTAL ..................     8.6 +j      0.5        8.7       0.9982
P30UDM12672                    1        -4.3 +j     -0.3        4.3       0.9982
...