p30uhs8_1247--p30udt9870/feeder_p30udt9870-p30uhs8_1247x_VLN_Node.Txt

LINE-GROUND and LINE-LINE VOLTAGES BY BUS & NODE

Bus                        Node    VLN (kV)   Angle      pu     Base kV    Node-Node   VLL (kV)  Angle      pu

P30UDT9870-P30UHS8_1247X . 1       7.1996 /_    0.0         1    12.470        1-2      12.47 /_   30.0         1
   -                       2       7.1995 /_ -120.0         1    12.470        2-3      12.47 /_  -90.0         1
   -                       3       7.1995 /_  120.0         1    12.470        3-1      12.47 /_  150.0         1
P30UDM6389 ............... 1      0.11475 /_  117.5   0.95551     0.208        1-2     0.2398 /_  117.8    1.1529
   -                       2      0.12505 /_  -62.0    1.0413     0.208
P30ULV7055 ............... 1       0.1141 /_  117.5   0.95012     0.208        1-2    0.24031 /_  117.7    1.1553
   -                       2      0.12621 /_  -62.0     1.051     0.208        2-3    0.12621 /_  -62.0   0.60678
   -                       3            0 /_    0.0         0     0.208        3-1     0.1141 /_  -62.5   0.54855
P30UDT1554LV ............. 1      0.11829 /_  117.9   0.98502     0.208        1-2    0.23702 /_  118.0    1.1395
   -                       2      0.11873 /_  -61.9   0.98872     0.208
P30UDM6390 ............... 1       0.1177 /_  117.9   0.98014     0.208        1-2    0.23586 /_  118.0    1.1339
   -                       2      0.11816 /_  -61.9   0.98391     0.208
P30ULV30721 .............. 1      0.11746 /_  117.9   0.97813     0.208        1-2    0.23538 /_  118.0    1.1316
   -                       2      0.11792 /_  -61.9   0.98193     0.208
P30UDT1556LV ............. 1      0.11743 /_  117.5   0.97783     0.208        1-2    0.23492 /_  117.6    1.1294
   -                       2       0.1175 /_  -62.4   0.97843     0.208
P30ULV7057 ............... 1      0.11732 /_  117.5   0.97698     0.208        1-2    0.23472 /_  117.6    1.1285
   -                       2       0.1174 /_  -62.4   0.97759     0.208
P30ULV40392 .............. 1      0.11742 /_  117.5   0.97778     0.208        1-2    0.23491 /_  117.6    1.1294
   -                       2      0.11749 /_  -62.4   0.97839     0.208        2-3    0.11749 /_  -62.4   0.56488
   -                       3            0 /_   -1.5         0     0.208        3-1    0.11742 /_  -62.5   0.56452
P30UDM6393 ............... 1      0.11716 /_  117.6   0.97562     0.208        1-2     0.2344 /_  117.6    1.1269
   -                       2      0.11723 /_  -62.3   0.97623     0.208
P30ULV40391 .............. 1      0.11705 /_  117.6   0.97469     0.208        1-2    0.23417 /_  117.6    1.1258
   -                       2      0.11712 /_  -62.3    0.9753     0.208
P30UDT1563LV ............. 1      0.11624 /_ -123.6   0.96793     0.208        1-2     0.2326 /_ -123.5    1.1183
   -                       2      0.11637 /_   56.6   0.96901     0.208
P30ULV7065 ............... 1      0.11599 /_ -123.6   0.96591     0.208        1-2    0.23212 /_ -123.5     1.116
   -                       2      0.11613 /_   56.6     0.967     0.208
P30UDM6418 ............... 1       0.1134 /_ -123.7   0.94432     0.208        1-2    0.22695 /_ -123.6    1.0911
   -                       2      0.11355 /_   56.5   0.94556     0.208
P30ULV7130 ............... 1      0.11331 /_ -123.7   0.94359     0.208        1-2    0.22678 /_ -123.6    1.0903
   -                       2      0.11346 /_   56.5   0.94484     0.208
P30UDM6419 ............... 1      0.11219 /_ -123.8   0.93426     0.208        1-2    0.22455 /_ -123.6    1.0796
   -                       2      0.11235 /_   56.5   0.93558     0.208
P30ULV7131 ............... 1      0.11191 /_ -123.8   0.93189     0.208        1-2    0.22398 /_ -123.6    1.0768
   -                       2      0.11207 /_   56.5   0.93323     0.208
P30UDM6420 ............... 1       0.1118 /_ -123.8   0.93098     0.208        1-2    0.22376 /_ -123.6    1.0758
   -                       2      0.11196 /_   56.5   0.93233     0.208
P30ULV7133 ............... 1      0.11166 /_ -123.8   0.92981     0.208        1-2    0.22348 /_ -123.7    1.0744
   -                       2      0.11182 /_   56.5   0.93117     0.208        2-3    0.11182 /_   56.5   0.53761
   -                       3            0 /_    0.0         0     0.208        3-1    0.11166 /_   56.2   0.53683
P30UDM6423 ............... 1      0.11704 /_   -2.3   0.97461     0.208        1-2    0.23466 /_   -2.2    1.1282
   -                       2      0.11762 /_  177.8   0.97945     0.208
P30ULV40342 .............. 1      0.11704 /_   -2.3    0.9746     0.208        1-2    0.23466 /_   -2.2    1.1282
   -                       2      0.11762 /_  177.8   0.97947     0.208        2-3    0.11762 /_  177.8    0.5655
   -                       3            0 /_ -135.0         0     0.208        3-1    0.11704 /_  177.7   0.56268
P30UDM6422 ............... 1      0.11688 /_   -2.3   0.97325     0.208        1-2    0.23466 /_   -2.2    1.1282
   -                       2      0.11778 /_  177.8   0.98081     0.208
P30ULV40341 .............. 1      0.11657 /_   -2.3   0.97073     0.208        1-2    0.23466 /_   -2.2    1.1282
   -                       2      0.11808 /_  177.8    0.9833     0.208        2-3    0.11808 /_  177.8   0.56771
   -                       3            0 /_  123.7         0     0.208        3-1    0.11657 /_  177.7   0.56045
P30UDT1564LV ............. 1      0.11721 /_   -2.3     0.976     0.208        1-2    0.23466 /_   -2.2    1.1282
   -                       2      0.11746 /_  177.9   0.97807     0.208
P30UDM6424 ............... 1      0.11677 /_   -2.3   0.97234     0.208        1-2    0.23454 /_   -2.2    1.1276
   -                       2      0.11777 /_  177.8   0.98072     0.208
P30ULV40367 .............. 1      0.11672 /_   -2.3   0.97193     0.208        1-2    0.23444 /_   -2.2    1.1271
   -                       2      0.11773 /_  177.8   0.98032     0.208
P30UDM6421 ............... 1       0.1161 /_   -2.3   0.96675     0.208        1-2    0.23455 /_   -2.2    1.1277
   -                       2      0.11846 /_  177.8   0.98641     0.208
P30ULV7066 ............... 1      0.11566 /_   -2.3   0.96314     0.208        1-2    0.23456 /_   -2.3    1.1277
   -                       2       0.1189 /_  177.8   0.99008     0.208        2-3     0.1189 /_  177.8   0.57162
   -                       3            0 /_   33.7         0     0.208        3-1    0.11566 /_  177.7   0.55607
P30UDT1578LV ............. 1      0.11684 /_ -123.6   0.97298     0.208        1-2    0.23391 /_ -123.4    1.1246
   -                       2      0.11707 /_   56.8   0.97482     0.208
P30ULV7106 ............... 1      0.11648 /_ -123.6   0.96996     0.208        1-2    0.23372 /_ -123.4    1.1237
   -                       2      0.11724 /_   56.7   0.97627     0.208        2-3    0.11724 /_   56.7   0.56365
   -                       3            0 /_    0.0         0     0.208        3-1    0.11648 /_   56.4      0.56
P30ULV7135 ............... 1      0.11658 /_ -123.5   0.97077     0.208        1-2    0.23338 /_ -123.4     1.122
   -                       2       0.1168 /_   56.8   0.97262     0.208
P30ULV7137 ............... 1      0.11667 /_ -123.6    0.9715     0.208        1-2    0.23355 /_ -123.4    1.1229
   -                       2      0.11689 /_   56.7   0.97335     0.208
P30UDM6518 ............... 1      0.11667 /_ -123.5   0.97152     0.208        1-2    0.23356 /_ -123.4    1.1229
   -                       2      0.11689 /_   56.8   0.97338     0.208
P30ULV7105 ............... 1      0.11662 /_ -123.5   0.97108     0.208        1-2    0.23345 /_ -123.4    1.1224
   -                       2      0.11684 /_   56.8   0.97293     0.208
P30UDM6520 ............... 1      0.11613 /_ -123.6   0.96702     0.208        1-2    0.23248 /_ -123.4    1.1177
   -                       2      0.11636 /_   56.7   0.96893     0.208
P30ULV7108 ............... 1      0.11604 /_ -123.6    0.9663     0.208        1-2    0.23231 /_ -123.4    1.1169
   -                       2      0.11627 /_   56.8   0.96821     0.208
P30ULV7109 ............... 1      0.11613 /_ -123.6   0.96703     0.208        1-2    0.23249 /_ -123.4    1.1177
   -                       2      0.11636 /_   56.7   0.96894     0.208        2-3       +Inf /_  180.0      +Inf
   -                       3         +Inf /_    0.0      +Inf     0.208        3-1       +Inf /_    0.0      +Inf
P30ULV7138 ............... 1      0.11587 /_ -123.6   0.96488     0.208        1-2    0.23197 /_ -123.4    1.1153
   -                       2       0.1161 /_   56.7    0.9668     0.208
P30UDT1579LV ............. 1      0.11742 /_ -123.1   0.97776     0.208        1-2    0.23545 /_ -122.9    1.1319
   -                       2      0.11803 /_   57.3   0.98285     0.208
P30ULV7110 ............... 1      0.11691 /_ -123.3   0.97355     0.208        1-2    0.23604 /_ -123.1    1.1348
   -                       2      0.11913 /_   57.2   0.99201     0.208        2-3    0.11913 /_   57.2   0.57274
   -                       3            0 /_    0.0         0     0.208        3-1    0.11691 /_   56.7   0.56208
P30ULV7116 ............... 1      0.11725 /_ -123.1   0.97638     0.208        1-2    0.23536 /_ -122.9    1.1315
   -                       2      0.11811 /_   57.3   0.98352     0.208        2-3       +Inf /_ -180.0      +Inf
   -                       3         +Inf /_    0.0      +Inf     0.208        3-1       +Inf /_    0.0      +Inf
P30UDM6527 ............... 1      0.11664 /_ -123.2   0.97132     0.208        1-2    0.23442 /_ -123.0     1.127
   -                       2      0.11777 /_   57.2    0.9807     0.208
P30ULV7120 ............... 1      0.11643 /_ -123.2    0.9695     0.208        1-2    0.23412 /_ -123.0    1.1256
   -                       2       0.1177 /_   57.2    0.9801     0.208        2-3     0.1177 /_   57.2   0.56586
   -                       3            0 /_  123.7         0     0.208        3-1    0.11643 /_   56.8   0.55974
P30UDM6528 ............... 1      0.11571 /_ -123.2   0.96353     0.208        1-2     0.2354 /_ -123.0    1.1317
   -                       2      0.11969 /_   57.1   0.99671     0.208
P30ULV7125 ............... 1      0.11522 /_ -123.2   0.95945     0.208        1-2    0.23539 /_ -123.1    1.1317
   -                       2      0.12017 /_   57.1    1.0007     0.208        2-3    0.12017 /_   57.1   0.57775
   -                       3            0 /_    0.0         0     0.208        3-1    0.11522 /_   56.8   0.55394
P30UDT1580LV ............. 1      0.11697 /_ -123.3   0.97402     0.208        1-2    0.23404 /_ -123.2    1.1252
   -                       2      0.11707 /_   56.9   0.97484     0.208
P30ULV7115 ............... 1      0.11697 /_ -123.3     0.974     0.208        1-2    0.23403 /_ -123.2    1.1252
   -                       2      0.11707 /_   56.9   0.97483     0.208        2-3    0.11707 /_   56.9   0.56282
   -                       3            0 /_    0.0         0     0.208        3-1    0.11697 /_   56.7   0.56234
P30ULV7121 ............... 1      0.11687 /_ -123.3   0.97321     0.208        1-2    0.23384 /_ -123.2    1.1243
   -                       2      0.11697 /_   56.9   0.97405     0.208
P30UDM6529 ............... 1      0.11614 /_ -123.3   0.96712     0.208        1-2    0.23293 /_ -123.2    1.1199
   -                       2      0.11679 /_   56.8   0.97252     0.208
P30ULV7114 ............... 1      0.11556 /_ -123.4    0.9623     0.208        1-2    0.23207 /_ -123.3    1.1157
   -                       2      0.11651 /_   56.8    0.9702     0.208        2-3    0.11651 /_   56.8   0.56015
   -                       3            0 /_    0.0         0     0.208        3-1    0.11556 /_   56.6   0.55558
P30UDT1581LV ............. 1      0.11726 /_ -123.4   0.97648     0.208        1-2    0.23569 /_ -123.1    1.1331
   -                       2      0.11843 /_   57.2   0.98616     0.208
P30ULV7128 ............... 1      0.11698 /_ -123.4   0.97414     0.208        1-2    0.23586 /_ -123.2    1.1339
   -                       2      0.11888 /_   57.1    0.9899     0.208        2-3    0.11888 /_   57.1   0.57152
   -                       3            0 /_   90.0         0     0.208        3-1    0.11698 /_   56.6   0.56242
P30UDM6534 ............... 1      0.11356 /_ -123.6   0.94565     0.208        1-2     0.2344 /_ -123.3    1.1269
   -                       2      0.12084 /_   56.9    1.0063     0.208
P30ULV7129 ............... 1      0.11307 /_ -123.6   0.94158     0.208        1-2    0.23347 /_ -123.3    1.1225
   -                       2       0.1204 /_   56.9    1.0026     0.208
P30UDM6532 ............... 1      0.10775 /_ -123.8   0.89729     0.208        1-2    0.23486 /_ -123.6    1.1291
   -                       2       0.1271 /_   56.6    1.0584     0.208
P30ULV7122 ............... 1      0.10668 /_ -123.9   0.88833     0.208        1-2    0.23493 /_ -123.6    1.1294
   -                       2      0.12825 /_   56.6    1.0679     0.208        2-3    0.12825 /_   56.6   0.61658
   -                       3            0 /_  -90.0         0     0.208        3-1    0.10668 /_   56.1   0.51288
P30UDM12668 .............. 1      0.11511 /_ -122.7    0.9585     0.208        1-2    0.23028 /_ -122.6    1.1071
   -                       2      0.11517 /_   57.5   0.95905     0.208
P30ULV10318 .............. 1      0.11472 /_ -122.7   0.95531     0.208        1-2    0.22951 /_ -122.6    1.1034
   -                       2      0.11479 /_   57.5   0.95586     0.208
P30UDT2794LV ............. 1       0.1162 /_ -122.6   0.96764     0.208        1-2    0.23247 /_ -122.6    1.1176
   -                       2      0.11627 /_   57.5   0.96816     0.208
P30UDM12669 .............. 1      0.11554 /_ -122.7   0.96215     0.208        1-2    0.23115 /_ -122.7    1.1113
   -                       2      0.11561 /_   57.4   0.96269     0.208
P30ULV43309 .............. 1      0.11543 /_ -122.7   0.96117     0.208        1-2    0.23092 /_ -122.7    1.1102
   -                       2      0.11549 /_   57.4   0.96172     0.208
P30UDT2795LV ............. 1      0.11657 /_  117.7   0.97066     0.208        1-2    0.23317 /_  117.8     1.121
   -                       2      0.11661 /_  -62.2     0.971     0.208
P30ULV10320 .............. 1      0.11639 /_  117.7   0.96921     0.208        1-2    0.23282 /_  117.8    1.1193
   -                       2      0.11643 /_  -62.2   0.96956     0.208
P30UDT2796LV ............. 1      0.11654 /_   -2.4   0.97047     0.208        1-2    0.23312 /_   -2.3    1.1208
   -                       2      0.11658 /_  177.7    0.9708     0.208
P30ULV10321 .............. 1      0.11635 /_   -2.4    0.9689     0.208        1-2    0.23275 /_   -2.3     1.119
   -                       2      0.11639 /_  177.7   0.96923     0.208
P30UDM12672 .............. 1      0.11611 /_   -2.4   0.96685     0.208        1-2    0.23226 /_   -2.3    1.1166
   -                       2      0.11615 /_  177.7   0.96719     0.208
P30ULV10322 .............. 1       0.1159 /_   -2.4   0.96511     0.208        1-2    0.23184 /_   -2.4    1.1146
   -                       2      0.11594 /_  177.7   0.96545     0.208
P30UDM12673 .............. 1      0.11636 /_   -2.4   0.96893     0.208        1-2    0.23276 /_   -2.3     1.119
   -                       2       0.1164 /_  177.7   0.96926     0.208
P30ULV43286 .............. 1      0.11615 /_   -2.4   0.96716     0.208        1-2    0.23233 /_   -2.3     1.117
   -                       2      0.11619 /_  177.7    0.9675     0.208
P30UDT2801LV ............. 1      0.11647 /_  117.7   0.96983     0.208        1-2    0.23298 /_  117.7    1.1201
   -                       2      0.11652 /_  -62.2   0.97025     0.208
P30ULV10327 .............. 1      0.11591 /_  117.7   0.96522     0.208        1-2    0.23188 /_  117.7    1.1148
   -                       2      0.11597 /_  -62.2   0.96566     0.208
P30UDT3440LV ............. 1       0.1173 /_ -122.9   0.97676     0.208        1-2    0.23475 /_ -122.7    1.1286
   -                       2      0.11745 /_   57.4   0.97806     0.208
P30ULV30651 .............. 1      0.11707 /_ -122.9    0.9749     0.208        1-2    0.23431 /_ -122.8    1.1265
   -                       2      0.11723 /_   57.4   0.97622     0.208
P30ULV30666 .............. 1      0.11722 /_ -122.9    0.9761     0.208        1-2    0.23459 /_ -122.7    1.1279
   -                       2      0.11738 /_   57.4    0.9774     0.208
P30ULV30686 .............. 1      0.11687 /_ -122.9   0.97317     0.208        1-2    0.23389 /_ -122.8    1.1245
   -                       2      0.11703 /_   57.3    0.9745     0.208
P30UDM16140 .............. 1      0.11722 /_ -123.0   0.97607     0.208        1-2     0.2346 /_ -122.9    1.1279
   -                       2      0.11738 /_   57.2   0.97746     0.208
P30ULV12272 .............. 1      0.11726 /_ -123.1   0.97644     0.208        1-2    0.23469 /_ -123.0    1.1283
   -                       2      0.11743 /_   57.1   0.97789     0.208        2-3    0.11743 /_   57.1   0.56458
   -                       3            0 /_    0.0         0     0.208        3-1    0.11726 /_   56.9   0.56375
P30ULV30633 .............. 1      0.11722 /_ -123.1    0.9761     0.208        1-2    0.23461 /_ -123.0    1.1279
   -                       2      0.11739 /_   57.2   0.97752     0.208        2-3    0.11739 /_   57.2   0.56437
   -                       3            0 /_    0.0         0     0.208        3-1    0.11722 /_   56.9   0.56355
P30ULV30661 .............. 1      0.11712 /_ -123.0    0.9753     0.208        1-2    0.23441 /_ -122.9     1.127
   -                       2      0.11729 /_   57.2    0.9767     0.208        2-3    0.11729 /_   57.2    0.5639
   -                       3            0 /_ -134.8         0     0.208        3-1    0.11712 /_   57.0   0.56309
P30UDM16144 .............. 1      0.11549 /_ -122.9   0.96171     0.208        1-2    0.23357 /_ -122.8    1.1229
   -                       2      0.11808 /_   57.3   0.98323     0.208
P30ULV30663 .............. 1      0.11535 /_ -122.9   0.96054     0.208        1-2    0.23329 /_ -122.8    1.1216
   -                       2      0.11794 /_   57.3   0.98213     0.208
P30ULV30680 .............. 1      0.11541 /_ -122.9   0.96106     0.208        1-2    0.23341 /_ -122.8    1.1222
   -                       2        0.118 /_   57.3   0.98262     0.208
P30ULV30703 .............. 1      0.11546 /_ -122.9   0.96149     0.208        1-2    0.23355 /_ -122.8    1.1228
   -                       2      0.11808 /_   57.3    0.9833     0.208        2-3    0.11808 /_   57.3   0.56771
   -                       3            0 /_    0.0         0     0.208        3-1    0.11546 /_   57.1   0.55512
P30ULV30718 .............. 1      0.11414 /_ -123.0   0.95048     0.208        1-2    0.23359 /_ -122.9     1.123
   -                       2      0.11945 /_   57.2   0.99469     0.208        2-3    0.11945 /_   57.2   0.57428
   -                       3            0 /_    0.0         0     0.208        3-1    0.11414 /_   57.0   0.54876
P30UDM16148 .............. 1      0.11505 /_ -122.9   0.95805     0.208        1-2    0.23271 /_ -122.8    1.1188
   -                       2      0.11766 /_   57.3   0.97978     0.208
P30ULV30691 .............. 1      0.11475 /_ -122.9   0.95552     0.208        1-2    0.23212 /_ -122.8     1.116
   -                       2      0.11737 /_   57.3    0.9774     0.208
P30UDT3614LV ............. 1      0.11671 /_ -123.0   0.97182     0.208        1-2    0.23375 /_ -122.8    1.1238
   -                       2      0.11704 /_   57.3   0.97462     0.208
P30ULV12649 .............. 1      0.11644 /_ -123.0   0.96958     0.208        1-2    0.23352 /_ -122.8    1.1227
   -                       2      0.11708 /_   57.3   0.97495     0.208        2-3       +Inf /_  180.0      +Inf
   -                       3         +Inf /_    0.0      +Inf     0.208        3-1       +Inf /_    0.0      +Inf
P30ULV31677 .............. 1      0.11642 /_ -123.0   0.96942     0.208        1-2    0.23412 /_ -122.9    1.1256
   -                       2       0.1177 /_   57.2   0.98015     0.208        2-3     0.1177 /_   57.2   0.56589
   -                       3            0 /_   36.9         0     0.208        3-1    0.11642 /_   57.0   0.55969
P30ULV31684 .............. 1      0.11615 /_ -123.0    0.9672     0.208        1-2    0.23264 /_ -122.9    1.1185
   -                       2      0.11649 /_   57.3   0.97004     0.208
P30UDM17163 .............. 1      0.11584 /_ -123.0   0.96464     0.208        1-2    0.23282 /_ -122.8    1.1193
   -                       2      0.11698 /_   57.3   0.97409     0.208
P30ULV12647 .............. 1      0.11559 /_ -123.0   0.96255     0.208        1-2    0.23232 /_ -122.8    1.1169
   -                       2      0.11673 /_   57.3   0.97205     0.208
P30ULV12669 .............. 1      0.11547 /_ -123.0   0.96152     0.208        1-2    0.23281 /_ -122.8    1.1193
   -                       2      0.11734 /_   57.3   0.97709     0.208        2-3       +Inf /_   90.0      +Inf
   -                       3         +Inf /_  -90.0      +Inf     0.208        3-1       +Inf /_  -90.0      +Inf
P30ULV31654 .............. 1      0.11584 /_ -123.0   0.96463     0.208        1-2    0.23282 /_ -122.9    1.1193
   -                       2      0.11698 /_   57.3    0.9741     0.208        2-3    0.11698 /_   57.3    0.5624
   -                       3            0 /_    0.0         0     0.208        3-1    0.11584 /_   57.0   0.55693
P30ULV31662 .............. 1      0.11572 /_ -123.0   0.96364     0.208        1-2    0.23258 /_ -122.9    1.1182
   -                       2      0.11686 /_   57.3   0.97311     0.208
P30UDM17166 .............. 1      0.11648 /_ -123.0   0.96994     0.208        1-2     0.2333 /_ -122.8    1.1216
   -                       2      0.11682 /_   57.3   0.97276     0.208
P30ULV31627 .............. 1      0.11634 /_ -123.0   0.96881     0.208        1-2    0.23302 /_ -122.8    1.1203
   -                       2      0.11668 /_   57.3   0.97163     0.208
P30ULV31636 .............. 1      0.11644 /_ -123.0   0.96964     0.208        1-2    0.23322 /_ -122.8    1.1213
   -                       2      0.11678 /_   57.3   0.97245     0.208
P30ULV31659 .............. 1      0.11641 /_ -123.0    0.9694     0.208        1-2    0.23317 /_ -122.8     1.121
   -                       2      0.11675 /_   57.3   0.97222     0.208
P30UDT3615LV ............. 1      0.11724 /_ -122.5   0.97625     0.208        1-2    0.23457 /_ -122.5    1.1278
   -                       2      0.11734 /_   57.6   0.97708     0.208
P30ULV30632 .............. 1      0.11711 /_ -122.5   0.97516     0.208        1-2    0.23431 /_ -122.5    1.1265
   -                       2      0.11721 /_   57.6     0.976     0.208
P30ULV30640 .............. 1      0.11713 /_ -122.5   0.97533     0.208        1-2    0.23435 /_ -122.5    1.1267
   -                       2      0.11723 /_   57.6   0.97616     0.208
P30ULV31701 .............. 1      0.11723 /_ -122.5   0.97621     0.208        1-2    0.23456 /_ -122.5    1.1277
   -                       2      0.11733 /_   57.6   0.97704     0.208        2-3    0.11733 /_   57.6    0.5641
   -                       3            0 /_    0.0         0     0.208        3-1    0.11723 /_   57.5   0.56361
P30ULV31703 .............. 1      0.11723 /_ -122.5   0.97623     0.208        1-2    0.23457 /_ -122.5    1.1277
   -                       2      0.11733 /_   57.6   0.97707     0.208        2-3    0.11733 /_   57.6   0.56411
   -                       3            0 /_    0.0         0     0.208        3-1    0.11723 /_   57.5   0.56363
P30UDM17173 .............. 1      0.11681 /_ -122.5   0.97272     0.208        1-2    0.23373 /_ -122.5    1.1237
   -                       2      0.11691 /_   57.6   0.97356     0.208
P30ULV12648 .............. 1      0.11654 /_ -122.5   0.97043     0.208        1-2    0.23318 /_ -122.5    1.1211
   -                       2      0.11664 /_   57.6   0.97129     0.208
P30ULV12670 .............. 1      0.11671 /_ -122.5   0.97186     0.208        1-2    0.23352 /_ -122.5    1.1227
   -                       2      0.11681 /_   57.6   0.97272     0.208        2-3    0.11681 /_   57.6    0.5616
   -                       3            0 /_    0.0         0     0.208        3-1    0.11671 /_   57.5   0.56111
P30UDM17177 .............. 1       0.1167 /_ -122.5   0.97176     0.208        1-2    0.23443 /_ -122.5     1.127
   -                       2      0.11773 /_   57.6   0.98034     0.208
P30ULV30648 .............. 1      0.11625 /_ -122.5   0.96804     0.208        1-2    0.23442 /_ -122.5     1.127
   -                       2      0.11817 /_   57.6   0.98401     0.208        2-3    0.11817 /_   57.6   0.56812
   -                       3            0 /_ -135.0         0     0.208        3-1    0.11625 /_   57.5    0.5589
P30ULV30670 .............. 1      0.11661 /_ -122.5   0.97099     0.208        1-2    0.23424 /_ -122.5    1.1262
   -                       2      0.11764 /_   57.6   0.97958     0.208
P30ULV31715 .............. 1      0.11669 /_ -122.5   0.97168     0.208        1-2    0.23441 /_ -122.5     1.127
   -                       2      0.11772 /_   57.6    0.9803     0.208        2-3       +Inf /_  -90.0      +Inf
   -                       3         +Inf /_   90.0      +Inf     0.208        3-1       +Inf /_   90.0      +Inf
P30UDT4321LV ............. 1      0.11653 /_   -3.0   0.97036     0.208        1-2    0.23316 /_   -2.9    1.1209
   -                       2      0.11663 /_  177.2   0.97117     0.208
P30ULV29750 .............. 1      0.11639 /_   -3.0   0.96922     0.208        1-2    0.23288 /_   -2.9    1.1196
   -                       2      0.11649 /_  177.2   0.97005     0.208
P30ULV29786 .............. 1      0.11617 /_   -3.0   0.96737     0.208        1-2    0.23244 /_   -2.9    1.1175
   -                       2      0.11627 /_  177.3   0.96821     0.208
P30UDM20326 .............. 1       0.1161 /_   -3.1   0.96676     0.208        1-2     0.2323 /_   -3.0    1.1168
   -                       2       0.1162 /_  177.2   0.96762     0.208
P30ULV14162 .............. 1      0.11424 /_   -3.1    0.9513     0.208        1-2     0.2286 /_   -3.0     1.099
   -                       2      0.11436 /_  177.1   0.95228     0.208
P30ULV29739 .............. 1       0.1161 /_   -3.2   0.96681     0.208        1-2    0.23231 /_   -3.1    1.1169
   -                       2      0.11621 /_  177.0   0.96772     0.208        2-3    0.11621 /_  177.0   0.55871
   -                       3            0 /_    4.8         0     0.208        3-1     0.1161 /_  176.8   0.55819
P30UDM20327 .............. 1      0.11579 /_   -3.0   0.96419     0.208        1-2    0.23168 /_   -2.9    1.1139
   -                       2      0.11589 /_  177.2   0.96507     0.208
P30ULV29732 .............. 1      0.11554 /_   -3.0   0.96213     0.208        1-2    0.23119 /_   -2.9    1.1115
   -                       2      0.11565 /_  177.2   0.96302     0.208
P30UDM20330 .............. 1      0.11602 /_   -3.0   0.96614     0.208        1-2    0.23215 /_   -2.9    1.1161
   -                       2      0.11612 /_  177.2   0.96699     0.208
P30ULV29762 .............. 1      0.11519 /_   -3.0   0.95925     0.208        1-2     0.2305 /_   -2.9    1.1082
   -                       2       0.1153 /_  177.3   0.96014     0.208
P30UDM20332 .............. 1      0.11551 /_   -3.0   0.96189     0.208        1-2    0.23113 /_   -2.9    1.1112
   -                       2      0.11562 /_  177.2   0.96277     0.208
P30ULV29795 .............. 1      0.11452 /_   -3.0    0.9536     0.208        1-2    0.22915 /_   -2.9    1.1017
   -                       2      0.11463 /_  177.2   0.95454     0.208
P30UDT4322LV ............. 1      0.11733 /_   -2.2   0.97699     0.208        1-2    0.23476 /_   -2.2    1.1286
   -                       2      0.11743 /_  177.8   0.97787     0.208
P30ULV14164 .............. 1      0.11733 /_   -2.3   0.97699     0.208        1-2    0.23476 /_   -2.2    1.1286
   -                       2      0.11743 /_  177.8   0.97789     0.208        2-3    0.11743 /_  177.8   0.56458
   -                       3            0 /_    0.0         0     0.208        3-1    0.11733 /_  177.7   0.56406
P30ULV29798 .............. 1      0.11622 /_   -2.4   0.96781     0.208        1-2    0.23479 /_   -2.3    1.1288
   -                       2      0.11857 /_  177.8   0.98731     0.208        2-3    0.11857 /_  177.8   0.57003
   -                       3            0 /_    0.0         0     0.208        3-1    0.11622 /_  177.6   0.55877
P30UDM20334 .............. 1      0.11724 /_   -2.2   0.97627     0.208        1-2    0.23458 /_   -2.2    1.1278
   -                       2      0.11735 /_  177.9   0.97715     0.208
P30ULV14165 .............. 1      0.11709 /_   -2.2   0.97506     0.208        1-2    0.23429 /_   -2.2    1.1264
   -                       2       0.1172 /_  177.9   0.97595     0.208
P30UDT4323LV ............. 1      0.11749 /_  117.2   0.97835     0.208        1-2     0.2351 /_  117.3    1.1303
   -                       2      0.11761 /_  -62.6   0.97939     0.208
P30ULV14193 .............. 1      0.11698 /_  117.1   0.97414     0.208        1-2    0.23409 /_  117.3    1.1255
   -                       2      0.11711 /_  -62.6   0.97521     0.208
P30UDM20336 .............. 1      0.11669 /_  117.2   0.97169     0.208        1-2    0.23351 /_  117.3    1.1226
   -                       2      0.11682 /_  -62.6   0.97277     0.208
P30ULV14166 .............. 1      0.11627 /_  117.1   0.96823     0.208        1-2    0.23268 /_  117.3    1.1186
...